data_generated_from_inp
_symmetry_space_group_name_H-M   'P 1'
_symmetry_Int_Tables_number       1
_cell_length_a    14.42848232
_cell_length_b    14.42848232
_cell_length_c    46.23727511
_cell_angle_alpha 90.00000000
_cell_angle_beta  90.00000000
_cell_angle_gamma 120.00129021

loop_
_symmetry_equiv_pos_as_xyz
  'x, y, z'

loop_
_atom_site_label
_atom_site_type_symbol
_atom_site_fract_x
_atom_site_fract_y
_atom_site_fract_z
_atom_site_occupancy
  La1    La  0.0000000000  0.0000000000  0.0000000000  1.0
  La2    La  0.0000000000  0.0000000000  0.5000000000  1.0
  La3    La  0.0000000000  0.5000000000  0.0000000000  1.0
  La4    La  0.0000000000  0.5000000000  0.5000000000  1.0
  La5    La  0.5000000000  0.0000000000  0.0000000000  1.0
  La6    La  0.5000000000  0.0000000000  0.5000000000  1.0
  La7    La  0.5000000000  0.5000000000  0.0000000000  1.0
  La8    La  0.5000000000  0.5000000000  0.5000000000  1.0
  La9    La  0.0000000000  0.0000000000  0.2500000000  1.0
  La10   La  0.0000000000  0.0000000000  0.7500000000  1.0
  La11   La  0.0000000000  0.5000000000  0.2500000000  1.0
  La12   La  0.0000000000  0.5000000000  0.7500000000  1.0
  La13   La  0.5000000000  0.0000000000  0.2500000000  1.0
  La14   La  0.5000000000  0.0000000000  0.7500000000  1.0
  La15   La  0.5000000000  0.5000000000  0.2500000000  1.0
  La16   La  0.5000000000  0.5000000000  0.7500000000  1.0
  La17   La  0.1666664930  0.3333334920  0.1250000000  1.0
  La18   La  0.1666664930  0.3333334920  0.6250000000  1.0
  La19   La  0.1666664930  0.8333334920  0.1250000000  1.0
  La20   La  0.1666664930  0.8333334920  0.6250000000  1.0
  La21   La  0.6666665080  0.3333334920  0.1250000000  1.0
  La22   La  0.6666665080  0.3333334920  0.6250000000  1.0
  La23   La  0.6666665080  0.8333334920  0.1250000000  1.0
  La24   La  0.6666665080  0.8333334920  0.6250000000  1.0
  La25   La  0.3333334920  0.1666664930  0.3750000000  1.0
  La26   La  0.3333334920  0.1666664930  0.8750000000  1.0
  La27   La  0.3333334920  0.6666665080  0.3750000000  1.0
  La28   La  0.3333334920  0.6666665080  0.8750000000  1.0
  La29   La  0.8333334920  0.1666664930  0.3750000000  1.0
  La30   La  0.8333334920  0.1666664930  0.8750000000  1.0
  La31   La  0.8333334920  0.6666665080  0.3750000000  1.0
  La32   La  0.8333334920  0.6666665080  0.8750000000  1.0
