data_generated_from_inp
_symmetry_space_group_name_H-M   'P 1'
_symmetry_Int_Tables_number       1
_cell_length_a    13.20480047
_cell_length_b    13.20480047
_cell_length_c    13.20480047
_cell_angle_alpha 90.00000000
_cell_angle_beta  90.00000000
_cell_angle_gamma 90.00000000

loop_
_symmetry_equiv_pos_as_xyz
  'x, y, z'

loop_
_atom_site_label
_atom_site_type_symbol
_atom_site_fract_x
_atom_site_fract_y
_atom_site_fract_z
_atom_site_occupancy
  Li1    Li  0.0000000000  0.0000000000  0.0000000000  1.0
  Li2    Li  0.0000000000  0.0000000000  0.5000000000  1.0
  Li3    Li  0.0000000000  0.5000000000  0.0000000000  1.0
  Li4    Li  0.0000000000  0.5000000000  0.5000000000  1.0
  Li5    Li  0.5000000000  0.0000000000  0.0000000000  1.0
  Li6    Li  0.5000000000  0.0000000000  0.5000000000  1.0
  Li7    Li  0.5000000000  0.5000000000  0.0000000000  1.0
  Li8    Li  0.5000000000  0.5000000000  0.5000000000  1.0
  Li9    Li  0.2500000000  0.2500000000  0.2500000000  1.0
  Li10   Li  0.2500000000  0.2500000000  0.7500000000  1.0
  Li11   Li  0.2500000000  0.7500000000  0.2500000000  1.0
  Li12   Li  0.2500000000  0.7500000000  0.7500000000  1.0
  Li13   Li  0.7500000000  0.2500000000  0.2500000000  1.0
  Li14   Li  0.7500000000  0.2500000000  0.7500000000  1.0
  Li15   Li  0.7500000000  0.7500000000  0.2500000000  1.0
  Li16   Li  0.7500000000  0.7500000000  0.7500000000  1.0
