data_generated_from_inp
_symmetry_space_group_name_H-M   'P 1'
_symmetry_Int_Tables_number       1
_cell_length_a    24.93221620
_cell_length_b    24.93223930
_cell_length_c    23.91834010
_cell_angle_alpha 90.00012757
_cell_angle_beta  90.00013359
_cell_angle_gamma 89.99991896

loop_
_symmetry_equiv_pos_as_xyz
  'x, y, z'

loop_
_atom_site_label
_atom_site_type_symbol
_atom_site_fract_x
_atom_site_fract_y
_atom_site_fract_z
_atom_site_occupancy
  La1    La  0.5000011037  0.7500003037  0.6250014753  1.0
  La2    La  0.4999996544  0.7500000347  0.1249985754  1.0
  La3    La  0.0000003271  0.7500001447  0.8750024478  1.0
  La4    La  0.9999988558  0.7500000607  0.3749984673  1.0
  La5    La  0.5000010946  0.2499997309  0.3750005787  1.0
  La6    La  0.4999997204  0.2499994599  0.8749985468  1.0
  La7    La  0.0000002392  0.2499997028  0.1250014971  1.0
  La8    La  0.9999988865  0.2499996197  0.6249984056  1.0
  La9    La  0.2500001464  0.8778169156  0.4999998218  1.0
  La10   La  0.7499999467  0.8778144340  0.0000002367  1.0
  La11   La  0.1278164085  0.5000012266  0.7500013320  1.0
  La12   La  0.8721837716  0.5000011960  0.2500008268  1.0
  La13   La  0.7499988135  0.1221845035  0.4999995642  1.0
  La14   La  0.2500012184  0.1221825596  0.9999999317  1.0
  La15   La  0.2500000449  0.6221864233  0.0000003999  1.0
  La16   La  0.7499999227  0.6221834758  0.4999995445  1.0
  La17   La  0.1278154828  0.9999990308  0.2499990851  1.0
  La18   La  0.8721826577  0.9999990464  0.7499995370  1.0
  La19   La  0.7499988517  0.3778173490  0.0000002085  1.0
  La20   La  0.2500011772  0.3778147594  0.4999993992  1.0
  La21   La  0.6278161289  0.0000001768  0.2500006587  1.0
  La22   La  0.3721852319  0.0000001056  0.7500011590  1.0
  La23   La  0.6278153820  0.5000001229  0.7499994194  1.0
  La24   La  0.3721849904  0.5000000962  0.2499988655  1.0
  Zr1    Zr  0.2500008127  0.7500009655  0.7500051664  1.0
  Zr2    Zr  0.7500007699  0.7499997899  0.2499987310  1.0
  Zr3    Zr  0.0000010942  0.5000051136  0.0000010892  1.0
  Zr4    Zr  0.9999968930  0.5000009645  0.4999976004  1.0
  Zr5    Zr  0.7499974235  0.2499991436  0.2500039223  1.0
  Zr6    Zr  0.2500040775  0.2499980261  0.7500001086  1.0
  Zr7    Zr  0.2499999027  0.7500006889  0.2499948733  1.0
  Zr8    Zr  0.7499986939  0.7500003338  0.7500014558  1.0
  Zr9    Zr  0.9999976065  0.9999999822  0.4999981657  1.0
  Zr10   Zr  0.9999999590  0.9999953596  0.0000017070  1.0
  Zr11   Zr  0.7499967966  0.2499997621  0.7499967862  1.0
  Zr12   Zr  0.2500018823  0.2499994645  0.2500007459  1.0
  Zr13   Zr  0.5000028732  0.0000024491  0.5000002285  1.0
  Zr14   Zr  0.4999993577  0.9999981403  0.9999989991  1.0
  Zr15   Zr  0.4999994732  0.5000025050  0.0000004976  1.0
  Zr16   Zr  0.5000025100  0.4999983285  0.4999999127  1.0
  Li1    Li  0.5000002059  0.7499999049  0.3749997615  1.0
  Li2    Li  0.5000000604  0.7500000173  0.8750002123  1.0
  Li3    Li  0.9999997150  0.7500000218  0.6250000458  1.0
  Li4    Li  0.9999999853  0.7500000889  0.1249997912  1.0
  Li5    Li  0.5000001930  0.2499998938  0.6249999389  1.0
  Li6    Li  0.4999999791  0.2499999239  0.1250002349  1.0
  Li7    Li  0.9999998532  0.2499998222  0.3750000366  1.0
  Li8    Li  0.9999999438  0.2499998091  0.8749999719  1.0
  Li9    Li  0.6788425841  0.9288429595  0.6250001972  1.0
  Li10   Li  0.3211571287  0.9288424511  0.1249996644  1.0
  Li11   Li  0.1788429729  0.9288420401  0.8750007115  1.0
  Li12   Li  0.8211573851  0.9288426097  0.3750000601  1.0
  Li13   Li  0.3211576153  0.0711574010  0.3749996353  1.0
  Li14   Li  0.6788424937  0.0711568584  0.8749996899  1.0
  Li15   Li  0.8211572490  0.0711569808  0.1250000542  1.0
  Li16   Li  0.1788427859  0.0711575111  0.6249999968  1.0
  Li17   Li  0.6788424997  0.5711577913  0.1249998580  1.0
  Li18   Li  0.3211576388  0.5711573449  0.6250000621  1.0
  Li19   Li  0.1788425300  0.5711570820  0.3749994824  1.0
  Li20   Li  0.8211572261  0.5711576801  0.8749999838  1.0
  Li21   Li  0.3211576679  0.4288426073  0.8750002005  1.0
  Li22   Li  0.6788426913  0.4288423242  0.3750006338  1.0
  Li23   Li  0.8211567358  0.4288427337  0.6249995204  1.0
  Li24   Li  0.1788427300  0.4288430975  0.1250002565  1.0
  Li25   Li  0.3363199077  0.8312913997  0.9438839936  1.0
  Li26   Li  0.6636801152  0.8312921687  0.4438838862  1.0
  Li27   Li  0.0812916278  0.5863204058  0.1938836418  1.0
  Li28   Li  0.9187078813  0.5863201867  0.6938839715  1.0
  Li29   Li  0.6636796250  0.1687078730  0.0561161857  1.0
  Li30   Li  0.3363204171  0.1687083063  0.5561162301  1.0
  Li31   Li  0.9187078962  0.4136804098  0.8061157568  1.0
  Li32   Li  0.0812917271  0.4136802249  0.3061160024  1.0
  Li33   Li  0.3363202847  0.6687080041  0.4438837997  1.0
  Li34   Li  0.6636799297  0.6687085804  0.9438839605  1.0
  Li35   Li  0.0812920128  0.9136799393  0.6938841805  1.0
  Li36   Li  0.9187082568  0.9136797663  0.1938837239  1.0
  Li37   Li  0.6636798226  0.3312915760  0.5561160378  1.0
  Li38   Li  0.3363201824  0.3312920619  0.0561161523  1.0
  Li39   Li  0.9187078925  0.0863196682  0.3061162992  1.0
  Li40   Li  0.0812922335  0.0863195047  0.8061159825  1.0
  Li41   Li  0.8363195489  0.3312917070  0.4438839802  1.0
  Li42   Li  0.1636804764  0.3312922936  0.9438840787  1.0
  Li43   Li  0.5812915452  0.0863201515  0.6938838104  1.0
  Li44   Li  0.4187083271  0.0863199545  0.1938840222  1.0
  Li45   Li  0.1636797681  0.6687081777  0.5561159653  1.0
  Li46   Li  0.8363200944  0.6687086346  0.0561161902  1.0
  Li47   Li  0.4187083701  0.9136801353  0.3061156351  1.0
  Li48   Li  0.5812915894  0.9136798934  0.8061161771  1.0
  Li49   Li  0.8363197399  0.1687076316  0.9438839938  1.0
  Li50   Li  0.1636802022  0.1687082261  0.4438838383  1.0
  Li51   Li  0.5812917357  0.4136801860  0.1938841191  1.0
  Li52   Li  0.4187086374  0.4136798417  0.6938839337  1.0
  Li53   Li  0.1636800698  0.8312912951  0.0561161051  1.0
  Li54   Li  0.8363198475  0.8312920066  0.5561159268  1.0
  Li55   Li  0.4187083287  0.5863201848  0.8061164318  1.0
  Li56   Li  0.5812919282  0.5863197706  0.3061159726  1.0
  O1     O   0.3051904141  0.7150368825  0.5966336558  1.0
  O2     O   0.6948094170  0.7150373562  0.0966356765  1.0
  O3     O   0.9650375287  0.5551895566  0.8466348860  1.0
  O4     O   0.0349631218  0.5551901596  0.3466363302  1.0
  O5     O   0.6948099509  0.2849624627  0.4033633511  1.0
  O6     O   0.3051899257  0.2849628034  0.9033644338  1.0
  O7     O   0.0349626446  0.4448085273  0.1533644470  1.0
  O8     O   0.9650378377  0.4448091254  0.6533653039  1.0
  O9     O   0.3051904447  0.7849622895  0.0966371334  1.0
  O10    O   0.6948093542  0.7849625409  0.5966351543  1.0
  O11    O   0.9650379556  0.9448096360  0.3466362160  1.0
  O12    O   0.0349625462  0.9448101950  0.8466347638  1.0
  O13    O   0.6948100634  0.2150374383  0.9033654577  1.0
  O14    O   0.3051898348  0.2150375861  0.4033644680  1.0
  O15    O   0.0349631147  0.0551910681  0.6533653615  1.0
  O16    O   0.9650373968  0.0551916195  0.1533643596  1.0
  O17    O   0.8051913593  0.2150373668  0.0966336883  1.0
  O18    O   0.1948087441  0.2150375438  0.5966353064  1.0
  O19    O   0.4650368773  0.0551901590  0.3466354130  1.0
  O20    O   0.5349627807  0.0551907968  0.8466356664  1.0
  O21    O   0.1948094867  0.7849622938  0.9033626623  1.0
  O22    O   0.8051907588  0.7849626197  0.4033651735  1.0
  O23    O   0.5349622069  0.9448091551  0.6533642699  1.0
  O24    O   0.4650374032  0.9448097558  0.1533648967  1.0
  O25    O   0.8051914221  0.2849627003  0.5966366149  1.0
  O26    O   0.1948086837  0.2849628263  0.0966348694  1.0
  O27    O   0.4650371341  0.4448091556  0.8466350993  1.0
  O28    O   0.5349621354  0.4448098054  0.3466356307  1.0
  O29    O   0.1948095004  0.7150368530  0.4033665166  1.0
  O30    O   0.8051906075  0.7150371537  0.9033639267  1.0
  O31    O   0.5349624874  0.5551902302  0.1533646108  1.0
  O32    O   0.4650366711  0.5551908381  0.6533646353  1.0
  O33    O   0.1032800435  0.8044541497  0.2149500233  1.0
  O34    O   0.8967212476  0.8044542100  0.7149484041  1.0
  O35    O   0.0544545198  0.3532792118  0.4649492218  1.0
  O36    O   0.9455457133  0.3532775758  0.9649482437  1.0
  O37    O   0.8967222402  0.1955459556  0.7850519342  1.0
  O38    O   0.1032789143  0.1955462419  0.2850509277  1.0
  O39    O   0.9455464081  0.6467201925  0.5350513565  1.0
  O40    O   0.0544536022  0.6467185822  0.0350503689  1.0
  O41    O   0.1032790564  0.6955454717  0.7149478191  1.0
  O42    O   0.8967205004  0.6955457633  0.2149494484  1.0
  O43    O   0.0544538737  0.1467224952  0.9649482096  1.0
  O44    O   0.9455467878  0.1467206899  0.4649492980  1.0
  O45    O   0.8967216997  0.3044540147  0.2850505917  1.0
  O46    O   0.1032780208  0.3044543037  0.7850517236  1.0
  O47    O   0.9455461863  0.8532810730  0.0350503535  1.0
  O48    O   0.0544545979  0.8532791497  0.5350515360  1.0
  O49    O   0.6032804482  0.3044541556  0.7149498430  1.0
  O50    O   0.3967196961  0.3044540196  0.2149487582  1.0
  O51    O   0.5544542390  0.8532800928  0.9649492620  1.0
  O52    O   0.4455451575  0.8532783475  0.4649486902  1.0
  O53    O   0.3967206057  0.6955456993  0.2850520647  1.0
  O54    O   0.6032796770  0.6955458681  0.7850504503  1.0
  O55    O   0.4455456594  0.1467213227  0.0350512448  1.0
  O56    O   0.5544536174  0.1467197251  0.5350506999  1.0
  O57    O   0.6032798285  0.1955461099  0.2149483872  1.0
  O58    O   0.3967190266  0.1955463451  0.7149493747  1.0
  O59    O   0.5544535524  0.6467209206  0.4649488825  1.0
  O60    O   0.4455462646  0.6467194705  0.9649490401  1.0
  O61    O   0.3967198707  0.8044537996  0.7850500028  1.0
  O62    O   0.6032788691  0.8044541068  0.2850516357  1.0
  O63    O   0.4455453766  0.3532802671  0.5350509830  1.0
  O64    O   0.5544544683  0.3532788232  0.0350511961  1.0
  O65    O   0.2777407824  0.8999085196  0.3028803077  1.0
  O66    O   0.7222599538  0.8999084749  0.8028789167  1.0
  O67    O   0.1499091377  0.5277412287  0.5528796174  1.0
  O68    O   0.8500917981  0.5277395127  0.0528787825  1.0
  O69    O   0.7222601719  0.1000922319  0.6971215068  1.0
  O70    O   0.2777403949  0.1000922393  0.1971208490  1.0
  O71    O   0.8500929278  0.4722594344  0.4471210205  1.0
  O72    O   0.1499078553  0.4722578590  0.9471201853  1.0
  O73    O   0.2777401055  0.6000912909  0.8028779898  1.0
  O74    O   0.7222593056  0.6000916015  0.3028791311  1.0
  O75    O   0.1499078058  0.9722605522  0.0528789414  1.0
  O76    O   0.8500928178  0.9722590811  0.5528793881  1.0
  O77    O   0.7222596213  0.3999081194  0.1971201455  1.0
  O78    O   0.2777399927  0.3999084914  0.6971208361  1.0
  O79    O   0.8500917316  0.0277421457  0.9471205747  1.0
  O80    O   0.1499088530  0.0277407685  0.4471213175  1.0
  O81    O   0.7777417587  0.3999083381  0.8028799683  1.0
  O82    O   0.2222587993  0.3999083645  0.3028795276  1.0
  O83    O   0.6499088608  0.0277415896  0.0528793195  1.0
  O84    O   0.3500904675  0.0277402677  0.5528789454  1.0
  O85    O   0.2222593821  0.6000914202  0.1971215487  1.0
  O86    O   0.7777412321  0.6000913053  0.6971207741  1.0
  O87    O   0.3500915884  0.9722602113  0.9471207579  1.0
  O88    O   0.6499077663  0.9722589413  0.4471208114  1.0
  O89    O   0.7777410009  0.1000923493  0.3028784387  1.0
  O90    O   0.2222583318  0.1000925838  0.8028789212  1.0
  O91    O   0.6499077775  0.4722599357  0.5528791798  1.0
  O92    O   0.3500916417  0.4722584391  0.0528792078  1.0
  O93    O   0.2222587855  0.8999082569  0.6971199370  1.0
  O94    O   0.7777405196  0.8999083610  0.1971210448  1.0
  O95    O   0.3500903657  0.5277413433  0.4471210853  1.0
  O96    O   0.6499088392  0.5277398516  0.9471209851  1.0
