data_generated_from_inp
_symmetry_space_group_name_H-M   'P 1'
_symmetry_Int_Tables_number       1
_cell_length_a    12.22394506
_cell_length_b    12.22511013
_cell_length_c    19.52922925
_cell_angle_alpha 90.00000000
_cell_angle_beta  90.00000000
_cell_angle_gamma 119.99684751

loop_
_symmetry_equiv_pos_as_xyz
  'x, y, z'

loop_
_atom_site_label
_atom_site_type_symbol
_atom_site_fract_x
_atom_site_fract_y
_atom_site_fract_z
_atom_site_occupancy
  Zr1    Zr  0.1666499970  0.3332999940  0.1250000000  1.0
  Zr2    Zr  0.1666499970  0.3332999940  0.6250000000  1.0
  Zr3    Zr  0.1666499970  0.8332999940  0.1250000000  1.0
  Zr4    Zr  0.1666499970  0.8332999940  0.6250000000  1.0
  Zr5    Zr  0.6666499970  0.3332999940  0.1250000000  1.0
  Zr6    Zr  0.6666499970  0.3332999940  0.6250000000  1.0
  Zr7    Zr  0.6666499970  0.8332999940  0.1250000000  1.0
  Zr8    Zr  0.6666499970  0.8332999940  0.6250000000  1.0
  Zr9    Zr  0.3333500030  0.1667000060  0.3750000000  1.0
  Zr10   Zr  0.3333500030  0.1667000060  0.8750000000  1.0
  Zr11   Zr  0.3333500030  0.6667000060  0.3750000000  1.0
  Zr12   Zr  0.3333500030  0.6667000060  0.8750000000  1.0
  Zr13   Zr  0.8333500030  0.1667000060  0.3750000000  1.0
  Zr14   Zr  0.8333500030  0.1667000060  0.8750000000  1.0
  Zr15   Zr  0.8333500030  0.6667000060  0.3750000000  1.0
  Zr16   Zr  0.8333500030  0.6667000060  0.8750000000  1.0
