data_image0
_chemical_formula_structural       Zr6
_chemical_formula_sum              "Zr6"
_cell_length_a       5.499866748432794
_cell_length_b       5.875598729948087
_cell_length_c       5.875598729948087
_cell_angle_alpha    90.150224468728
_cell_angle_beta     62.008390238410605
_cell_angle_gamma    62.008390238410605

_space_group_name_H-M_alt    "P 1"
_space_group_IT_number       1

loop_
  _space_group_symop_operation_xyz
  'x, y, z'

loop_
  _atom_site_type_symbol
  _atom_site_label
  _atom_site_symmetry_multiplicity
  _atom_site_fract_x
  _atom_site_fract_y
  _atom_site_fract_z
  _atom_site_occupancy
  Zr  Zr1       1.0  0.7500000007690071  0.7501101889580867  0.24988980943060132  1.0000
  Zr  Zr2       1.0  0.25000000076900697  0.24988980943060138  0.7501101889580867  1.0000
  Zr  Zr3       1.0  0.41657531985806273  0.3239844902778869  0.17797884971291192  1.0000
  Zr  Zr4       1.0  0.08342468014193731  0.822021150287088  0.6760155097221131  1.0000
  Zr  Zr5       1.0  0.5834246801419373  0.6760155097221131  0.822021150287088  1.0000
  Zr  Zr6       1.0  0.9165753198580626  0.177978849712912  0.3239844902778869  1.0000
