data_image0
_chemical_formula_structural       O2
_chemical_formula_sum              "O2"
_cell_length_a       1.532199
_cell_length_b       2.4315495310400324
_cell_length_c       5.701631
_cell_angle_alpha    90.0
_cell_angle_beta     90.0
_cell_angle_gamma    108.36480851325729

_space_group_name_H-M_alt    "P 1"
_space_group_IT_number       1

loop_
  _space_group_symop_operation_xyz
  'x, y, z'

loop_
  _atom_site_type_symbol
  _atom_site_label
  _atom_site_symmetry_multiplicity
  _atom_site_fract_x
  _atom_site_fract_y
  _atom_site_fract_z
  _atom_site_occupancy
  O   O1        1.0  0.16630199862146955  0.3326030003769971  0.75  1.0000
  O   O2        1.0  0.8336980013785302  0.6673969996230028  0.24999999999999997  1.0000
