data_image0
_chemical_formula_structural       O4
_chemical_formula_sum              "O4"
_cell_length_a       2.834989972636411
_cell_length_b       2.834989972636411
_cell_length_c       4.654566
_cell_angle_alpha    90.0
_cell_angle_beta     90.0
_cell_angle_gamma    113.96641407403635

_space_group_name_H-M_alt    "P 1"
_space_group_IT_number       1

loop_
  _space_group_symop_operation_xyz
  'x, y, z'

loop_
  _atom_site_type_symbol
  _atom_site_label
  _atom_site_symmetry_multiplicity
  _atom_site_fract_x
  _atom_site_fract_y
  _atom_site_fract_z
  _atom_site_occupancy
  O   O1        1.0  0.749009999284864  0.25099000071513605  0.5002389997262903  1.0000
  O   O2        1.0  0.2509900007151361  0.749009999284864  0.49976100027370973  1.0000
  O   O3        1.0  0.2509900007151361  0.749009999284864  0.00023899972629027065  1.0000
  O   O4        1.0  0.749009999284864  0.25099000071513605  0.9997610002737097  1.0000
