data_image0
_chemical_formula_structural       O4
_chemical_formula_sum              "O4"
_cell_length_a       2.524478587854918
_cell_length_b       2.524478587854918
_cell_length_c       7.96935976
_cell_angle_alpha    90.0
_cell_angle_beta     90.0
_cell_angle_gamma    120.00010817941177

_space_group_name_H-M_alt    "P 1"
_space_group_IT_number       1

loop_
  _space_group_symop_operation_xyz
  'x, y, z'

loop_
  _atom_site_type_symbol
  _atom_site_label
  _atom_site_symmetry_multiplicity
  _atom_site_fract_x
  _atom_site_fract_y
  _atom_site_fract_z
  _atom_site_occupancy
  O   O1        1.0  0.6666940711060949  0.333305928893905  0.6728910704866963  1.0000
  O   O2        1.0  0.33330592889390503  0.666694071106095  0.3271089295133039  1.0000
  O   O3        1.0  0.33330592889390503  0.666694071106095  0.1728910704866962  1.0000
  O   O4        1.0  0.6666940711060949  0.333305928893905  0.8271089295133038  1.0000
