data_image0
_chemical_formula_structural       Li12
_chemical_formula_sum              "Li12"
_cell_length_a       8.51582020573315
_cell_length_b       8.51582020573315
_cell_length_c       5.406859
_cell_angle_alpha    90.0
_cell_angle_beta     90.0
_cell_angle_gamma    141.78363463263804

_space_group_name_H-M_alt    "P 1"
_space_group_IT_number       1

loop_
  _space_group_symop_operation_xyz
  'x, y, z'

loop_
  _atom_site_type_symbol
  _atom_site_label
  _atom_site_symmetry_multiplicity
  _atom_site_fract_x
  _atom_site_fract_y
  _atom_site_fract_z
  _atom_site_occupancy
  Li  Li1       1.0  0.7559529992344882  0.7559529992344883  0.5978089996428609  1.0000
  Li  Li2       1.0  0.24404700076551167  0.24404700076551167  0.40219100035713895  1.0000
  Li  Li3       1.0  0.7440470007655114  0.7440470007655116  0.09780899964286104  1.0000
  Li  Li4       1.0  0.25595299923448833  0.25595299923448833  0.9021910003571391  1.0000
  Li  Li5       1.0  0.7819590004334319  0.4548210007001279  0.7538709997800941  1.0000
  Li  Li6       1.0  0.545178999299872  0.21804099956656794  0.24612900021990586  1.0000
  Li  Li7       1.0  0.04517899929987206  0.7180409995665681  0.25387099978009414  1.0000
  Li  Li8       1.0  0.28195900043343186  0.9548210007001279  0.7461290002199059  1.0000
  Li  Li9       1.0  0.218040999566568  0.5451789992998721  0.24612900021990586  1.0000
  Li  Li10      1.0  0.4548210007001278  0.7819590004334319  0.7538709997800941  1.0000
  Li  Li11      1.0  0.9548210007001279  0.2819590004334319  0.7461290002199059  1.0000
  Li  Li12      1.0  0.718040999566568  0.045178999299872  0.25387099978009414  1.0000
