data_image0
_chemical_formula_structural       Li4Zr3O8
_chemical_formula_sum              "Li4 Zr3 O8"
_cell_length_a       5.465209703276327
_cell_length_b       5.465209703276327
_cell_length_c       6.2160596913302815
_cell_angle_alpha    90.0
_cell_angle_beta     90.0
_cell_angle_gamma    68.43584115882318

_space_group_name_H-M_alt    "P 1"
_space_group_IT_number       1

loop_
  _space_group_symop_operation_xyz
  'x, y, z'

loop_
  _atom_site_type_symbol
  _atom_site_label
  _atom_site_symmetry_multiplicity
  _atom_site_fract_x
  _atom_site_fract_y
  _atom_site_fract_z
  _atom_site_occupancy
  Li  Li1       1.0  0.2500000002986013  0.4999999991482045  0.8804336596012817  1.0000
  Li  Li2       1.0  0.7500000002986013  0.9999999991482046  0.3695663403987184  1.0000
  Li  Li3       1.0  0.25000000085179547  0.9999999997013989  0.6250000000000001  1.0000
  Li  Li4       1.0  0.7500000008517955  0.49999999970139886  0.125  1.0000
  Zr  Zr1       1.0  0.25000000085179547  0.9999999997013987  0.125  1.0000
  Zr  Zr2       1.0  0.7500000002986013  0.9999999991482045  0.8477055296921071  1.0000
  Zr  Zr3       1.0  0.25000000029860114  0.4999999991482046  0.40229447030789317  1.0000
  O   O1        1.0  0.03089513054384255  0.26368190013150095  0.3572505491605172  1.0000
  O   O2        1.0  0.5136819001315008  0.7808951305438426  0.8927494497019347  1.0000
  O   O3        1.0  0.4826812003385861  0.2326811991881894  0.6250000000000001  1.0000
  O   O4        1.0  0.008991410352719631  0.758991409202323  0.12499999999999999  1.0000
  O   O5        1.0  0.4910085902444828  0.2410085890940861  0.125  1.0000
  O   O6        1.0  0.01731880025861637  0.7673187991082197  0.625  1.0000
  O   O7        1.0  0.9863181004216933  0.2191048700093518  0.8927494508394829  1.0000
  O   O8        1.0  0.4691048700093518  0.7363181004216934  0.35725055029806546  1.0000
