data_image0
_chemical_formula_structural       Li2
_chemical_formula_sum              "Li2"
_cell_length_a       3.0775387888522214
_cell_length_b       3.0775387888522214
_cell_length_c       4.922947
_cell_angle_alpha    90.0
_cell_angle_beta     90.0
_cell_angle_gamma    120.00001695836976

_space_group_name_H-M_alt    "P 1"
_space_group_IT_number       1

loop_
  _space_group_symop_operation_xyz
  'x, y, z'

loop_
  _atom_site_type_symbol
  _atom_site_label
  _atom_site_symmetry_multiplicity
  _atom_site_fract_x
  _atom_site_fract_y
  _atom_site_fract_z
  _atom_site_occupancy
  Li  Li1       1.0  0.3333329994030527  0.6666670005969473  0.25  1.0000
  Li  Li2       1.0  0.6666670005969473  0.3333329994030527  0.75  1.0000
