data_image0
_chemical_formula_structural       LiO2
_chemical_formula_sum              "Li1 O2"
_cell_length_a       3.286414101528751
_cell_length_b       3.2864142724311303
_cell_length_c       3.2864143771651144
_cell_angle_alpha    59.594091570853756
_cell_angle_beta     59.59407126255531
_cell_angle_gamma    59.594094484659855

_space_group_name_H-M_alt    "P 1"
_space_group_IT_number       1

loop_
  _space_group_symop_operation_xyz
  'x, y, z'

loop_
  _atom_site_type_symbol
  _atom_site_label
  _atom_site_symmetry_multiplicity
  _atom_site_fract_x
  _atom_site_fract_y
  _atom_site_fract_z
  _atom_site_occupancy
  Li  Li1       1.0  0.500000998434062  0.5000010015922737  0.49999899983817436  1.0000
  O   O1        1.0  0.25091055114471844  0.25090755169725415  0.2509085488279846  1.0000
  O   O2        1.0  0.7490934510732337  0.7490904489038007  0.7490914502491506  1.0000
