data_image0
_chemical_formula_structural       Li3La
_chemical_formula_sum              "Li3 La1"
_cell_length_a       5.265363547712547
_cell_length_b       5.265363547712547
_cell_length_c       5.265363547712547
_cell_angle_alpha    59.99999999999999
_cell_angle_beta     59.99999999999999
_cell_angle_gamma    59.99999999999999

_space_group_name_H-M_alt    "P 1"
_space_group_IT_number       1

loop_
  _space_group_symop_operation_xyz
  'x, y, z'

loop_
  _atom_site_type_symbol
  _atom_site_label
  _atom_site_symmetry_multiplicity
  _atom_site_fract_x
  _atom_site_fract_y
  _atom_site_fract_z
  _atom_site_occupancy
  Li  Li1       1.0  0.0  0.0  0.0  1.0000
  Li  Li2       1.0  0.49999899950963084  0.49999899950963084  0.4999989995096307  1.0000
  Li  Li3       1.0  0.24999999932852998  0.24999999932852998  0.24999999932852993  1.0000
  La  La1       1.0  0.7500009998188992  0.7500009998188992  0.750000999818899  1.0000
