data_image0
_chemical_formula_structural       Li3
_chemical_formula_sum              "Li3"
_cell_length_a       7.629930033251484
_cell_length_b       7.629930033251484
_cell_length_c       7.629930224091567
_cell_angle_alpha    23.16431389806098
_cell_angle_beta     23.16431389806098
_cell_angle_gamma    23.164316749494347

_space_group_name_H-M_alt    "P 1"
_space_group_IT_number       1

loop_
  _space_group_symop_operation_xyz
  'x, y, z'

loop_
  _atom_site_type_symbol
  _atom_site_label
  _atom_site_symmetry_multiplicity
  _atom_site_fract_x
  _atom_site_fract_y
  _atom_site_fract_z
  _atom_site_occupancy
  Li  Li1       1.0  0.77794599997854  0.7779459999785399  0.7779459998428638  1.0000
  Li  Li2       1.0  0.22205400002145997  0.2220540000214601  0.22205400015713608  1.0000
  Li  Li3       1.0  0.0  0.0  0.0  1.0000
