data_image0
_chemical_formula_structural       O8
_chemical_formula_sum              "O8"
_cell_length_a       4.500866106551634
_cell_length_b       6.05038512511045
_cell_length_c       6.05038512511045
_cell_angle_alpha    97.98026508528302
_cell_angle_beta     108.39850192856309
_cell_angle_gamma    108.39850192856309

_space_group_name_H-M_alt    "P 1"
_space_group_IT_number       1

loop_
  _space_group_symop_operation_xyz
  'x, y, z'

loop_
  _atom_site_type_symbol
  _atom_site_label
  _atom_site_symmetry_multiplicity
  _atom_site_fract_x
  _atom_site_fract_y
  _atom_site_fract_z
  _atom_site_occupancy
  O   O1        1.0  0.3939598104921659  0.7112057996756231  0.006915300670578968  1.0000
  O   O2        1.0  0.10604019126305962  0.993084699987344  0.2887942009822998  1.0000
  O   O3        1.0  0.6060401895078343  0.2887942003243769  0.9930846993294211  1.0000
  O   O4        1.0  0.8939598087369405  0.006915300012656057  0.7112057990177002  1.0000
  O   O5        1.0  0.13913346006066432  0.5986924894470416  0.8220270902443247  1.0000
  O   O6        1.0  0.36086654030027776  0.17797290898181703  0.40130750977910024  1.0000
  O   O7        1.0  0.8608665399393358  0.40130751055295855  0.17797290975567534  1.0000
  O   O8        1.0  0.6391334596997222  0.8220270910181829  0.5986924902208997  1.0000
