data_image0
_chemical_formula_structural       Zr30O60
_chemical_formula_sum              "Zr30 O60"
_cell_length_a       10.437354414766272
_cell_length_b       9.986001706637483
_cell_length_c       11.27159857683607
_cell_angle_alpha    91.0708540401745
_cell_angle_beta     95.43611813548398
_cell_angle_gamma    93.91097751227927

_space_group_name_H-M_alt    "P 1"
_space_group_IT_number       1

loop_
  _space_group_symop_operation_xyz
  'x, y, z'

loop_
  _atom_site_type_symbol
  _atom_site_label
  _atom_site_symmetry_multiplicity
  _atom_site_fract_x
  _atom_site_fract_y
  _atom_site_fract_z
  _atom_site_occupancy
  Zr  Zr1       1.0  0.20248135034102296  0.855929840144821  0.5662503095740667  1.0000
  Zr  Zr2       1.0  0.3778486201190991  0.2050920004740529  0.6196970696542361  1.0000
  Zr  Zr3       1.0  0.08334583016802272  0.7892326500553675  0.28848634009188456  1.0000
  Zr  Zr4       1.0  0.5749118397554553  0.7242396800419529  0.6923933300907349  1.0000
  Zr  Zr5       1.0  0.5316181399640133  0.9629235397265465  0.476838360148358  1.0000
  Zr  Zr6       1.0  0.03737284032874171  0.3752798298509286  0.9214550895706037  1.0000
  Zr  Zr7       1.0  0.4112971202643752  0.9174520599717851  0.1357516403783806  1.0000
  Zr  Zr8       1.0  0.8056919197188687  0.0015133696098789558  0.6056813300012743  1.0000
  Zr  Zr9       1.0  0.804832979604694  0.21462208027227614  0.07219844036431408  1.0000
  Zr  Zr10      1.0  0.9593852000604843  0.38073781007602436  0.6218617302041707  1.0000
  Zr  Zr11      1.0  0.10539470031852285  0.08413131050289721  0.7487285396387767  1.0000
  Zr  Zr12      1.0  0.2894466701355712  0.5162145904330525  0.10627081997975976  1.0000
  Zr  Zr13      1.0  0.7255093298911616  0.9073402801893854  0.24925356973185586  1.0000
  Zr  Zr14      1.0  0.08023874001904607  0.1558501902755131  0.4179063104325564  1.0000
  Zr  Zr15      1.0  0.6252384900681948  0.025974239986000538  0.8599045400683165  1.0000
  Zr  Zr16      1.0  0.7570731095994673  0.25918408022641726  0.3849092601165967  1.0000
  Zr  Zr17      1.0  0.5517696602396758  0.674498449985937  0.9856016097514417  1.0000
  Zr  Zr18      1.0  0.4104845202540091  0.2940763604361066  0.9163206897458386  1.0000
  Zr  Zr19      1.0  0.11353097998352865  0.4974348903434644  0.40599410972230415  1.0000
  Zr  Zr20      1.0  0.6097533497452664  0.40518825978014317  0.7033400796001433  1.0000
  Zr  Zr21      1.0  0.956002940364356  0.7089912499817479  0.7114136799330721  1.0000
  Zr  Zr22      1.0  0.9022095999983692  0.5557051597744148  0.11058293029952453  1.0000
  Zr  Zr23      1.0  0.269188360386145  0.8681393303466163  0.8786177000194693  1.0000
  Zr  Zr24      1.0  0.25327847005803805  0.5470851999836112  0.7533988101677469  1.0000
  Zr  Zr25      1.0  0.7361169697126795  0.6616277901585118  0.471129440153454  1.0000
  Zr  Zr26      1.0  0.9187533297362106  0.8740926199827243  0.9675858403084597  1.0000
  Zr  Zr27      1.0  0.18139104985649418  0.1262964497603882  0.0962642798449491  1.0000
  Zr  Zr28      1.0  0.41640116010652906  0.7008960298509967  0.3334590799483268  1.0000
  Zr  Zr29      1.0  0.38977037988295193  0.27036125008954587  0.31364138981772716  1.0000
  Zr  Zr30      1.0  0.6244778802070051  0.4836603597807284  0.2244710202327216  1.0000
  O   O1        1.0  0.47703304955797227  0.4515190597708364  0.043628949656115606  1.0000
  O   O2        1.0  0.7094557696850503  0.6038400199635628  0.08445013995470234  1.0000
  O   O3        1.0  0.8704510797957428  0.7149321401882125  0.8647655402629039  1.0000
  O   O4        1.0  0.27831335977415866  0.9845067798509171  0.7196573304196439  1.0000
  O   O5        1.0  0.5486930597565692  0.7289798898430978  0.49209307019228626  1.0000
  O   O6        1.0  0.7197587802649311  0.4643376596645871  0.39987221993039185  1.0000
  O   O7        1.0  0.7786057000176163  0.11900862997522971  0.24743193043440143  1.0000
  O   O8        1.0  0.2485741699735649  0.16358958025858353  0.9085469699375429  1.0000
  O   O9        1.0  0.005562960362991314  0.19714932952244452  0.016790559716905334  1.0000
  O   O10       1.0  0.37094187047411875  0.10583262026162582  0.19050323994609009  1.0000
  O   O11       1.0  0.4396707001587436  0.4847151104687182  0.28959709981129916  1.0000
  O   O12       1.0  0.616146739864556  0.8149992704567888  0.8632602002123516  1.0000
  O   O13       1.0  0.8587862500584061  0.39799294029978216  0.9765381199659259  1.0000
  O   O14       1.0  0.1153479200040834  0.9544946203938238  0.4263734403261803  1.0000
  O   O15       1.0  0.06628885953405408  0.9357253298283237  0.8728422902102718  1.0000
  O   O16       1.0  0.27065624045339304  0.3166560501185247  0.14829197039286818  1.0000
  O   O17       1.0  0.24436312010461772  0.4298140804180548  0.9204595399934925  1.0000
  O   O18       1.0  0.7992797099064128  0.041476179730753654  0.7840542200011866  1.0000
  O   O19       1.0  0.7819597002086454  0.3423218599558167  0.6704297198692082  1.0000
  O   O20       1.0  0.5826361996018756  0.5569340001134476  0.8293309799533107  1.0000
  O   O21       1.0  0.12376373039300083  0.6999408395762856  0.45990325968502127  1.0000
  O   O22       1.0  0.08735531011814339  0.5124555296409606  0.06460925044212738  1.0000
  O   O23       1.0  0.90224751032063  0.8579895101394563  0.27536318973132234  1.0000
  O   O24       1.0  0.2247048097396811  0.928060309678241  0.04751198042653974  1.0000
  O   O25       1.0  0.9199076102772276  0.1512913204064614  0.5262414096646177  1.0000
  O   O26       1.0  0.005815259605401482  0.9273379299320949  0.6421476895702433  1.0000
  O   O27       1.0  0.626482529828399  0.20128912009591501  0.9804912398462239  1.0000
  O   O28       1.0  0.4388546103266939  0.9644223104385664  0.9431883302269541  1.0000
  O   O29       1.0  0.513541900265667  0.187406279978502  0.7704218502944156  1.0000
  O   O30       1.0  0.42164136006272923  0.687569350056248  0.1405727699157845  1.0000
  O   O31       1.0  0.3369617102937095  0.6827104300169566  0.9172369796424996  1.0000
  O   O32       1.0  0.23007605975703244  0.5844689104345243  0.2818475500687016  1.0000
  O   O33       1.0  0.5819144899454065  0.9441562499745938  0.6599522202570263  1.0000
  O   O34       1.0  0.6464025598148261  0.6797670595623454  0.2965043600889836  1.0000
  O   O35       1.0  0.156591450120302  0.4698457299530833  0.5920929301003047  1.0000
  O   O36       1.0  0.026903030326383595  0.515692520096225  0.7798480999236567  1.0000
  O   O37       1.0  0.4879895399207767  0.350553319939034  0.5555680404312635  1.0000
  O   O38       1.0  0.6010801297729562  0.85565247015984  0.09731434975135717  1.0000
  O   O39       1.0  0.21684413960988605  0.3172656303658312  0.3916307399422713  1.0000
  O   O40       1.0  0.08555818966730651  0.11035082029942365  0.23989481982711508  1.0000
  O   O41       1.0  0.9913003703699804  0.756620700288166  0.09595820010077685  1.0000
  O   O42       1.0  0.3857847503076811  0.6689419804970359  0.678858800103597  1.0000
  O   O43       1.0  0.2748822602984151  0.8331287398329233  0.2535403996242629  1.0000
  O   O44       1.0  0.37545960041542836  0.3764124399566142  0.7516436404401979  1.0000
  O   O45       1.0  0.5787704800645352  0.2775913696890807  0.2836239096990067  1.0000
  O   O46       1.0  0.17951524031262556  0.1733126296635175  0.5951821796522725  1.0000
  O   O47       1.0  0.7336497597792165  0.898608570117062  0.43993218984494475  1.0000
  O   O48       1.0  0.7916653804833257  0.0064732503967433784  0.018716459925637634  1.0000
  O   O49       1.0  0.35813493963561605  0.8474001901405172  0.48077156001405663  1.0000
  O   O50       1.0  0.9641600503362275  0.3492332000420766  0.42097448014600075  1.0000
  O   O51       1.0  0.9115131503246079  0.5801896799031868  0.5664844600595093  1.0000
  O   O52       1.0  0.520448639567557  0.9042452899362703  0.30035700955495975  1.0000
  O   O53       1.0  0.1591886199185112  0.7382595799287958  0.7274885502284754  1.0000
  O   O54       1.0  0.6684191600078105  0.1324180800037462  0.49979699981425896  1.0000
  O   O55       1.0  0.7857453296080739  0.7897542396166282  0.6360791799632596  1.0000
  O   O56       1.0  0.02348418028237827  0.25757838969177665  0.7627745699200267  1.0000
  O   O57       1.0  0.974097490278472  0.589326649882359  0.28381426974389606  1.0000
  O   O58       1.0  0.6601579097840282  0.566464259758324  0.6162189898491773  1.0000
  O   O59       1.0  0.7951209904661882  0.37918188040056044  0.1924866204062713  1.0000
  O   O60       1.0  0.39835300954033276  0.11871007966270852  0.4542835995410373  1.0000
