data_image0
_chemical_formula_structural       Li17La12Zr8O48
_chemical_formula_sum              "Li17 La12 Zr8 O48"
_cell_length_a       11.352385243415045
_cell_length_b       11.352385243415045
_cell_length_c       11.352385243415045
_cell_angle_alpha    108.37176334701053
_cell_angle_beta     108.37176334701053
_cell_angle_gamma    111.69324777357878

_space_group_name_H-M_alt    "P 1"
_space_group_IT_number       1

loop_
  _space_group_symop_operation_xyz
  'x, y, z'

loop_
  _atom_site_type_symbol
  _atom_site_label
  _atom_site_symmetry_multiplicity
  _atom_site_fract_x
  _atom_site_fract_y
  _atom_site_fract_z
  _atom_site_occupancy
  Li  Li1       1.0  0.3750000005724691  0.6249999998197896  0.25  1.0000
  Li  Li2       1.0  0.27722173985362336  0.7877936801740769  0.16204611009184713  1.0000
  Li  Li3       1.0  0.10926612994670977  0.27591857020994115  0.4947893002971628  1.0000
  Li  Li4       1.0  0.273999399745407  0.7825614599551767  0.6682116798598485  1.0000
  Li  Li5       1.0  0.6150657597556471  0.28107727008962957  0.5043322702683328  1.0000
  Li  Li6       1.0  0.7189227295181118  0.22325500957127825  0.8339884994508514  1.0000
  Li  Li7       1.0  0.8942122797221828  0.7260005998623343  0.5085620602097697  1.0000
  Li  Li8       1.0  0.7240814293978001  0.21887073947979657  0.3333475695216023  1.0000
  Li  Li9       1.0  0.3848243698459649  0.7227782597541178  0.5105719403204535  1.0000
  Li  Li10      1.0  0.781129259936917  0.11447683021119881  0.005210699702837118  1.0000
  Li  Li11      1.0  0.6257475700822298  0.6151756297617763  0.33795388990815284  1.0000
  Li  Li12      1.0  0.7767449898454354  0.6107334900489663  0.9956677297316673  1.0000
  Li  Li13      1.0  0.11434978931850992  0.10578771932390649  0.831788319387472  1.0000
  Li  Li14      1.0  0.21743854021421652  0.8856502102892313  0.9914379405429099  1.0000
  Li  Li15      1.0  0.3892665103432924  0.3849342400749596  0.6660114997964691  1.0000
  Li  Li16      1.0  0.2122063194336644  0.37425242952551147  0.9894280596795465  1.0000
  Li  Li17      1.0  0.8855231701810599  0.890733869883897  0.16665242972571812  1.0000
  La  La1       1.0  0.12200993978937653  0.3720099397893765  0.24999999924732047  1.0000
  La  La2       1.0  0.6279900598502027  0.8779900598502026  0.24999999924732047  1.0000
  La  La3       1.0  0.8748386496828142  0.6248386504354936  0.75  1.0000
  La  La4       1.0  0.3751613499567652  0.12516135070944467  0.75  1.0000
  La  La5       1.0  0.7509397804009196  0.3887968799809364  0.13915010021249316  1.0000
  La  La6       1.0  0.7488713494551863  0.8881189198219912  0.6375731500596525  1.0000
  La  La7       1.0  0.8882103299886662  0.24906021999133912  0.6378571093648507  1.0000
  La  La8       1.0  0.1118810799767777  0.7494542300364303  0.36075242060104085  1.0000
  La  La9       1.0  0.25054576957131086  0.6112981901723519  0.8624268499403475  1.0000
  La  La10      1.0  0.24964678033009519  0.11178967021256504  0.36084989978750687  1.0000
  La  La11      1.0  0.3887018099970414  0.2511286501525551  0.1392475801516387  1.0000
  La  La12      1.0  0.6112031198496705  0.7503532200621635  0.8621428898824699  1.0000
  Zr  Zr1       1.0  0.004143939730116059  0.5016809299908924  0.006785490168880265  1.0000
  Zr  Zr2       1.0  0.9986098899144118  0.9994507699249124  0.4999644193325053  1.0000
  Zr  Zr3       1.0  0.0005492304673463067  0.5005136497998516  0.4991591199894994  1.0000
  Zr  Zr4       1.0  0.5026415600542049  0.9958560601004909  0.4975369895080968  1.0000
  Zr  Zr5       1.0  0.4994863505924071  0.9986454705819064  3.558066749472191e-05  1.0000
  Zr  Zr6       1.0  0.4948954304078027  0.49735844014702635  0.4932145098311198  1.0000
  Zr  Zr7       1.0  0.49831907059239394  0.5051045705461079  0.002463010491903147  1.0000
  Zr  Zr8       1.0  0.0013545298103522236  0.001390110477846937  0.0008408800105006911  1.0000
  O   O1        1.0  0.9015748705334377  0.31966053045267157  0.03279436042694085  1.0000
  O   O2        1.0  0.7878766499735843  0.8182638898707137  0.4189050704040733  1.0000
  O   O3        1.0  0.8200092903037304  0.4022633102328642  0.5319450802658207  1.0000
  O   O4        1.0  0.3699757701997639  0.9017503898782128  0.5829473400347573  1.0000
  O   O5        1.0  0.09824961047246805  0.6811969497545444  0.9682243800104701  1.0000
  O   O6        1.0  0.2119348000607074  0.17999071032113387  0.5822540199291324  1.0000
  O   O7        1.0  0.18173610969544968  0.6006411793468419  0.4696117597917896  1.0000
  O   O8        1.0  0.6312185005537723  0.09842513065307858  0.4180856704567458  1.0000
  O   O9        1.0  0.39935881946664037  0.8689715795695109  0.08109492959592672  1.0000
  O   O10       1.0  0.2868671700626267  0.3687815003585589  0.4672056403257387  1.0000
  O   O11       1.0  0.3188030498434554  0.28702843016500645  0.9170526599652428  1.0000
  O   O12       1.0  0.870319220028078  0.7880652000989443  0.9680549197341793  1.0000
  O   O13       1.0  0.5977366903920015  0.129680780131575  0.9177459800708677  1.0000
  O   O14       1.0  0.7129715694843125  0.6300242302022363  0.5317756199895297  1.0000
  O   O15       1.0  0.6803394701721941  0.7131328302880541  0.08191433029593373  1.0000
  O   O16       1.0  0.13102842007980828  0.212123350428416  0.03038824020821047  1.0000
  O   O17       1.0  0.3209117706551239  0.02171882029662991  0.910779290336737  1.0000
  O   O18       1.0  0.6140987203804325  0.5235787803431831  0.7003366003741922  1.0000
  O   O19       1.0  0.5181686394936318  0.8167678594154243  0.40783353964565094  1.0000
  O   O20       1.0  0.911397170147631  0.322644560157573  0.29970825959501823  1.0000
  O   O21       1.0  0.6773554400436583  0.977063700391356  0.08875261977489181  1.0000
  O   O22       1.0  0.3896648997597604  0.4818313601141095  0.29859921992179256  1.0000
  O   O23       1.0  0.4764212198262101  0.1767578194477227  0.5905199498220831  1.0000
  O   O24       1.0  0.0898675200738716  0.6790882297371346  0.7008070496415058  1.0000
  O   O25       1.0  0.8232421801600186  0.41376212998210155  0.7996634003784874  1.0000
  O   O26       1.0  0.11093952995989287  0.910132480318387  0.589220709663263  1.0000
  O   O27       1.0  0.02293630000090285  0.11168891977579465  0.20029173965230218  1.0000
  O   O28       1.0  0.4089343197697735  0.610335099847981  0.09216646035434913  1.0000
  O   O29       1.0  0.18323214019231684  0.5910656798379678  0.20140078007820747  1.0000
  O   O30       1.0  0.8883110800548122  0.08860283024462759  0.41124738022510815  1.0000
  O   O31       1.0  0.9782811800956288  0.8890604704323658  0.799192950358494  1.0000
  O   O32       1.0  0.5862378698485052  0.38590128001182633  0.9094800494252374  1.0000
  O   O33       1.0  0.5845147800466636  0.20427600985957656  0.17230105977718682  1.0000
  O   O34       1.0  0.5332919299406108  0.7034328901827106  0.6215822696528225  1.0000
  O   O35       1.0  0.7046827801865025  0.08504894039775415  0.6737352503165938  1.0000
  O   O36       1.0  0.9112172003779351  0.5852699900171343  0.38032178998273186  1.0000
  O   O37       1.0  0.4147300103751243  0.7950518003578562  0.8259472103608009  1.0000
  O   O38       1.0  0.4690514694683295  0.29531721946281664  0.38036615945857066  1.0000
  O   O39       1.0  0.29656711016797016  0.9181493798207911  0.32985804019949877  1.0000
  O   O40       1.0  0.08778628031380963  0.41548521978394326  0.6197612200280792  1.0000
  O   O41       1.0  0.08185061978695024  0.4117086599864489  0.8784177303471792  1.0000
  O   O42       1.0  0.031975940376031464  0.9122137200368713  0.3276989402228147  1.0000
  O   O43       1.0  0.20494819999282313  0.030896409912025233  0.1196782100172666  1.0000
  O   O44       1.0  0.41131369003958124  0.5309485301394103  0.8262647504360844  1.0000
  O   O45       1.0  0.9149510599945047  0.5886863103110983  0.11963383978874831  1.0000
  O   O46       1.0  0.9691035896957144  0.08878280002406348  0.6740527903918773  1.0000
  O   O47       1.0  0.7957239897897442  0.9680240597933634  0.8802387799719223  1.0000
  O   O48       1.0  0.5882913404155513  0.46670807045164936  0.1701419605531823  1.0000
