data_image0
_chemical_formula_structural       Zr12O3
_chemical_formula_sum              "Zr12 O3"
_cell_length_a       5.660199330973622
_cell_length_b       5.661159147878797
_cell_length_c       10.95195790742428
_cell_angle_alpha    74.97536042204895
_cell_angle_beta     90.01558187921987
_cell_angle_gamma    59.98400357514782

_space_group_name_H-M_alt    "P 1"
_space_group_IT_number       1

loop_
  _space_group_symop_operation_xyz
  'x, y, z'

loop_
  _atom_site_type_symbol
  _atom_site_label
  _atom_site_symmetry_multiplicity
  _atom_site_fract_x
  _atom_site_fract_y
  _atom_site_fract_z
  _atom_site_occupancy
  Zr  Zr1       1.0  0.4567909399303818  0.41600766027321723  0.37297613037696187  1.0000
  Zr  Zr2       1.0  0.9633347794598374  0.4100346711454098  0.8748599697973447  1.0000
  Zr  Zr3       1.0  0.12668256022569901  0.08435221951520255  0.37296211990319345  1.0000
  Zr  Zr4       1.0  0.6262923888188775  0.08858998010811792  0.8748165002120654  1.0000
  Zr  Zr5       1.0  0.7886197695711649  0.754146079921547  0.3729069100077275  1.0000
  Zr  Zr6       1.0  0.2847194594478285  0.7519203597586883  0.8747950297003521  1.0000
  Zr  Zr7       1.0  0.373546930616353  0.9150988291520722  0.12787173044226507  1.0000
  Zr  Zr8       1.0  0.8739147997695708  0.910916220534801  0.6259946502616895  1.0000
  Zr  Zr9       1.0  0.04349746967410562  0.5834857102042036  0.12785303965151965  1.0000
  Zr  Zr10      1.0  0.5369777490970825  0.5894444699971204  0.6259516098220655  1.0000
  Zr  Zr11      1.0  0.7117171400845925  0.2452370307224919  0.1279227202290358  1.0000
  Zr  Zr12      1.0  0.2155771198033927  0.2474737096406754  0.6260180804593191  1.0000
  O   O1        1.0  0.2501161597712378  0.49976418124977107  0.7503560498910222  1.0000
  O   O2        1.0  0.4997970708062781  0.0003241199027609598  0.49966334042740307  1.0000
  O   O3        1.0  0.00044866047996572215  0.99920475909628  0.0010521201685605018  1.0000
