data_image0
_chemical_formula_structural       La
_chemical_formula_sum              "La1"
_cell_length_a       3.6577688991159487
_cell_length_b       3.657768896871834
_cell_length_c       3.6577689
_cell_angle_alpha    109.4712206518148
_cell_angle_beta     109.47122063938667
_cell_angle_gamma    109.4712205637022

_space_group_name_H-M_alt    "P 1"
_space_group_IT_number       1

loop_
  _space_group_symop_operation_xyz
  'x, y, z'

loop_
  _atom_site_type_symbol
  _atom_site_label
  _atom_site_symmetry_multiplicity
  _atom_site_fract_x
  _atom_site_fract_y
  _atom_site_fract_z
  _atom_site_occupancy
  La  La1       1.0  0.0  0.0  0.0  1.0000
