data_image0
_chemical_formula_structural       La2O4
_chemical_formula_sum              "La2 O4"
_cell_length_a       3.93410073
_cell_length_b       4.307105927432136
_cell_length_c       6.363854127922032
_cell_angle_alpha    99.94316644871319
_cell_angle_beta     90.0
_cell_angle_gamma    90.0

_space_group_name_H-M_alt    "P 1"
_space_group_IT_number       1

loop_
  _space_group_symop_operation_xyz
  'x, y, z'

loop_
  _atom_site_type_symbol
  _atom_site_label
  _atom_site_symmetry_multiplicity
  _atom_site_fract_x
  _atom_site_fract_y
  _atom_site_fract_z
  _atom_site_occupancy
  La  La1       1.0  0.7500000006354693  0.1953012210670839  0.8005399696870682  1.0000
  La  La2       1.0  0.2499999993645308  0.8046987789329162  0.19946003031293183  1.0000
  O   O1        1.0  0.7500000006354693  0.8269115398283565  0.4544914798010291  1.0000
  O   O2        1.0  0.2499999993645308  0.17308846017164345  0.5455085201989709  1.0000
  O   O3        1.0  0.7500000006354693  0.7445795291640009  0.9691422205929172  1.0000
  O   O4        1.0  0.2499999993645308  0.2554204708359991  0.030857779407082744  1.0000
