data_image0
_chemical_formula_structural       Zr8
_chemical_formula_sum              "Zr8"
_cell_length_a       15.20095867
_cell_length_b       10.11948091
_cell_length_c       2.91595507
_cell_angle_alpha    90.0
_cell_angle_beta     90.0
_cell_angle_gamma    90.0

_space_group_name_H-M_alt    "P 1"
_space_group_IT_number       1

loop_
  _space_group_symop_operation_xyz
  'x, y, z'

loop_
  _atom_site_type_symbol
  _atom_site_label
  _atom_site_symmetry_multiplicity
  _atom_site_fract_x
  _atom_site_fract_y
  _atom_site_fract_z
  _atom_site_occupancy
  Zr  Zr1       1.0  0.5000000003289266  0.5000000004940965  0.0  1.0000
  Zr  Zr2       1.0  0.0  0.0  0.0  1.0000
  Zr  Zr3       1.0  0.5000000003289266  0.0  0.0  1.0000
  Zr  Zr4       1.0  0.0  0.5000000004940965  0.0  1.0000
  Zr  Zr5       1.0  0.5000000003289266  0.25000000024704827  0.4999999982852959  1.0000
  Zr  Zr6       1.0  0.5000000003289266  0.7499999997529517  0.4999999982852959  1.0000
  Zr  Zr7       1.0  0.0  0.25000000024704827  0.4999999982852959  1.0000
  Zr  Zr8       1.0  0.0  0.7499999997529517  0.4999999982852959  1.0000
