data_image0
_chemical_formula_structural       Li2O2
_chemical_formula_sum              "Li2 O2"
_cell_length_a       3.591737402613471
_cell_length_b       3.5945513654518053
_cell_length_c       2.5328883694078064
_cell_angle_alpha    90.03308780519215
_cell_angle_beta     89.96696776903394
_cell_angle_gamma    89.95214682886757

_space_group_name_H-M_alt    "P 1"
_space_group_IT_number       1

loop_
  _space_group_symop_operation_xyz
  'x, y, z'

loop_
  _atom_site_type_symbol
  _atom_site_label
  _atom_site_symmetry_multiplicity
  _atom_site_fract_x
  _atom_site_fract_y
  _atom_site_fract_z
  _atom_site_occupancy
  Li  Li1       1.0  0.4999978204469653  0.49999914944346746  0.0002945417748808921  1.0000
  Li  Li2       1.0  0.9999960101747306  0.9999972987565943  0.00019822088066351968  1.0000
  O   O1        1.0  0.9999932586520878  0.5000110600360826  0.5057719380454531  1.0000
  O   O2        1.0  0.5000129113456092  0.9999914900477388  0.49373431187054717  1.0000
