data_image0
_chemical_formula_structural       Li4La4O8
_chemical_formula_sum              "Li4 La4 O8"
_cell_length_a       5.926894934597404
_cell_length_b       6.23922641
_cell_length_c       5.895163114815768
_cell_angle_alpha    90.0
_cell_angle_beta     102.89712924311438
_cell_angle_gamma    90.0

_space_group_name_H-M_alt    "P 1"
_space_group_IT_number       1

loop_
  _space_group_symop_operation_xyz
  'x, y, z'

loop_
  _atom_site_type_symbol
  _atom_site_label
  _atom_site_symmetry_multiplicity
  _atom_site_fract_x
  _atom_site_fract_y
  _atom_site_fract_z
  _atom_site_occupancy
  Li  Li1       1.0  0.6549249104349885  0.36114241925706947  0.672981749575547  1.0000
  Li  Li2       1.0  0.3450750904270041  0.8611424200584509  0.8270182497663635  1.0000
  Li  Li3       1.0  0.34507508956501154  0.6388575807429306  0.32701825042445304  1.0000
  Li  Li4       1.0  0.654924909572996  0.1388575799415492  0.17298175023363663  1.0000
  La  La1       1.0  0.20000769967884607  0.43156305975439035  0.8057853006429561  1.0000
  La  La2       1.0  0.7999922994591614  0.9315630605557718  0.6942147000151336  1.0000
  La  La3       1.0  0.7999923003211539  0.5684369402456098  0.19421469935704389  1.0000
  La  La4       1.0  0.20000770054083866  0.06843693944422831  0.3057852999848665  1.0000
  O   O1        1.0  0.9129400503258912  0.23936737054554175  0.9866256392541398  1.0000
  O   O2        1.0  0.08705995053610147  0.7393673697441604  0.5133743600877706  1.0000
  O   O3        1.0  0.08705994967410885  0.7606326294544584  0.013374360745860158  1.0000
  O   O4        1.0  0.9129400494638985  0.26063263025583966  0.48662563991222946  1.0000
  O   O5        1.0  0.4281794593661224  0.36782068948833035  0.20831921026764344  1.0000
  O   O6        1.0  0.571820539771885  0.8678206902897118  0.29168079039044625  1.0000
  O   O7        1.0  0.5718205406338775  0.6321793105116696  0.7916807897323567  1.0000
  O   O8        1.0  0.42817946022811504  0.13217930971028827  0.7083192096095539  1.0000
