data_image0
_chemical_formula_structural       LiO8
_chemical_formula_sum              "Li1 O8"
_cell_length_a       5.0573757452372465
_cell_length_b       5.112338626127772
_cell_length_c       5.112338536934051
_cell_angle_alpha    73.49344580276845
_cell_angle_beta     61.42033746822464
_cell_angle_gamma    61.42033399985757

_space_group_name_H-M_alt    "P 1"
_space_group_IT_number       1

loop_
  _space_group_symop_operation_xyz
  'x, y, z'

loop_
  _atom_site_type_symbol
  _atom_site_label
  _atom_site_symmetry_multiplicity
  _atom_site_fract_x
  _atom_site_fract_y
  _atom_site_fract_z
  _atom_site_occupancy
  Li  Li1       1.0  0.4955299993315909  0.8037059996028799  0.8037059999326792  1.0000
  O   O1        1.0  0.8420980005429576  0.33335799946378725  0.8203930003578743  1.0000
  O   O2        1.0  0.150599999931248  0.23329699895884196  0.6996169994522432  1.0000
  O   O3        1.0  0.15059999863794346  0.6996170008028711  0.23329700113223004  1.0000
  O   O4        1.0  0.8420979993601786  0.82039300058491  0.3333580000823526  1.0000
  O   O5        1.0  0.8380169997461526  0.2558220004593969  0.2558220008956965  1.0000
  O   O6        1.0  0.1537130002767822  0.741225000997293  0.7412249994846459  1.0000
  O   O7        1.0  0.14205900087232348  0.15254900014683553  0.15254899902966265  1.0000
  O   O8        1.0  0.8436180001487542  0.8647949996288304  0.8647950003574684  1.0000
