data_image0
_chemical_formula_structural       LiO8
_chemical_formula_sum              "Li1 O8"
_cell_length_a       4.573487187998891
_cell_length_b       5.679982705186874
_cell_length_c       5.6799824267820584
_cell_angle_alpha    69.47805287460754
_cell_angle_beta     68.25517189696282
_cell_angle_gamma    68.255173506618

_space_group_name_H-M_alt    "P 1"
_space_group_IT_number       1

loop_
  _space_group_symop_operation_xyz
  'x, y, z'

loop_
  _atom_site_type_symbol
  _atom_site_label
  _atom_site_symmetry_multiplicity
  _atom_site_fract_x
  _atom_site_fract_y
  _atom_site_fract_z
  _atom_site_occupancy
  Li  Li1       1.0  0.009181999882444086  0.6052669990618884  0.6052670009712595  1.0000
  O   O1        1.0  0.8483590000824073  0.27662600016311467  0.7989959992374831  1.0000
  O   O2        1.0  0.1608000005546906  0.2113969995269366  0.7401690000692147  1.0000
  O   O3        1.0  0.1608000006040627  0.7401689995893845  0.21139700075319884  1.0000
  O   O4        1.0  0.8483589997142584  0.7989959996960181  0.2766259998534014  1.0000
  O   O5        1.0  0.8298669996091195  0.20123599965734598  0.2012359998937571  1.0000
  O   O6        1.0  0.174992000906784  0.7832279999067127  0.7832279989269452  1.0000
  O   O7        1.0  0.13112499942817055  0.1424400004970605  0.14243999968722101  1.0000
  O   O8        1.0  0.8642939991324107  0.8477829997890015  0.8477830006672911  1.0000
