data_image0
_chemical_formula_structural       Li3Zr
_chemical_formula_sum              "Li3 Zr1"
_cell_length_a       4.731741964609028
_cell_length_b       4.731741964609028
_cell_length_c       4.731741964609028
_cell_angle_alpha    60.00000000000001
_cell_angle_beta     60.00000000000001
_cell_angle_gamma    60.00000000000001

_space_group_name_H-M_alt    "P 1"
_space_group_IT_number       1

loop_
  _space_group_symop_operation_xyz
  'x, y, z'

loop_
  _atom_site_type_symbol
  _atom_site_label
  _atom_site_symmetry_multiplicity
  _atom_site_fract_x
  _atom_site_fract_y
  _atom_site_fract_z
  _atom_site_occupancy
  Li  Li1       1.0  0.0  0.0  0.0  1.0000
  Li  Li2       1.0  0.5  0.5  0.5  1.0000
  Li  Li3       1.0  0.250000000747195  0.250000000747195  0.250000000747195  1.0000
  Zr  Zr1       1.0  0.749998999505904  0.749998999505904  0.7499989995059038  1.0000
