data_image0
_chemical_formula_structural       LiO8
_chemical_formula_sum              "Li1 O8"
_cell_length_a       4.4770192743978665
_cell_length_b       5.526793806597365
_cell_length_c       5.526375341405884
_cell_angle_alpha    70.19354204893781
_cell_angle_beta     69.90760857195104
_cell_angle_gamma    71.71516407966173

_space_group_name_H-M_alt    "P 1"
_space_group_IT_number       1

loop_
  _space_group_symop_operation_xyz
  'x, y, z'

loop_
  _atom_site_type_symbol
  _atom_site_label
  _atom_site_symmetry_multiplicity
  _atom_site_fract_x
  _atom_site_fract_y
  _atom_site_fract_z
  _atom_site_occupancy
  Li  Li1       1.0  0.5484399992047535  0.9671459994363508  0.5725169998508975  1.0000
  O   O1        1.0  0.8445179996561052  0.2598090006127356  0.801406999741839  1.0000
  O   O2        1.0  0.1460330010595189  0.22905399956446412  0.737974999383886  1.0000
  O   O3        1.0  0.17721400092536732  0.7304659995517209  0.23997100070707553  1.0000
  O   O4        1.0  0.8757300007368272  0.7518459994920731  0.3125330004324162  1.0000
  O   O5        1.0  0.8363809999494941  0.18942299911743232  0.2274290005185875  1.0000
  O   O6        1.0  0.16220200041404081  0.8142779992582698  0.7341460010313371  1.0000
  O   O7        1.0  0.14044100072209098  0.13537899965897965  0.16395899920076284  1.0000
  O   O8        1.0  0.8523739989596227  0.8868850002110585  0.8053010007595541  1.0000
