data_image0
_chemical_formula_structural       O12
_chemical_formula_sum              "O12"
_cell_length_a       4.70600056
_cell_length_b       4.70600056
_cell_length_c       4.98886894
_cell_angle_alpha    90.0
_cell_angle_beta     90.0
_cell_angle_gamma    90.0

_space_group_name_H-M_alt    "P 1"
_space_group_IT_number       1

loop_
  _space_group_symop_operation_xyz
  'x, y, z'

loop_
  _atom_site_type_symbol
  _atom_site_label
  _atom_site_symmetry_multiplicity
  _atom_site_fract_x
  _atom_site_fract_y
  _atom_site_fract_z
  _atom_site_occupancy
  O   O1        1.0  0.5955686392863497  0.2649712009384036  0.507116869660641  1.0000
  O   O2        1.0  0.40443136071365027  0.7350287990615965  0.007116869660640956  1.0000
  O   O3        1.0  0.7649712009384037  0.9044313607136503  0.25711687066287214  1.0000
  O   O4        1.0  0.23502879906159635  0.09556863928634976  0.7571168706628721  1.0000
  O   O5        1.0  0.7350287990615965  0.40443136071365027  0.992883130339359  1.0000
  O   O6        1.0  0.2649712009384036  0.5955686392863497  0.4928831303393591  1.0000
  O   O7        1.0  0.9044313607136503  0.7649712009384037  0.742883129337128  1.0000
  O   O8        1.0  0.09556863928634976  0.23502879906159635  0.24288312933712788  1.0000
  O   O9        1.0  0.9693503308890383  0.030649669110961605  0.7499999989977688  1.0000
  O   O10       1.0  0.030649669110961605  0.9693503308890383  0.2499999989977688  1.0000
  O   O11       1.0  0.5306496691109616  0.5306496691109616  0.5  1.0000
  O   O12       1.0  0.4693503308890384  0.4693503308890384  0.0  1.0000
