data_image0
_chemical_formula_structural       La2O3
_chemical_formula_sum              "La2 O3"
_cell_length_a       3.938340942763843
_cell_length_b       3.938340942763843
_cell_length_c       6.180293
_cell_angle_alpha    90.0
_cell_angle_beta     90.0
_cell_angle_gamma    119.99998223968284

_space_group_name_H-M_alt    "P 1"
_space_group_IT_number       1

loop_
  _space_group_symop_operation_xyz
  'x, y, z'

loop_
  _atom_site_type_symbol
  _atom_site_label
  _atom_site_symmetry_multiplicity
  _atom_site_fract_x
  _atom_site_fract_y
  _atom_site_fract_z
  _atom_site_occupancy
  La  La1       1.0  0.6666669994426369  0.33333300055736304  0.7528530006587068  1.0000
  La  La2       1.0  0.3333330005573631  0.6666669994426369  0.24714699934129336  1.0000
  O   O1        1.0  0.6666669994426369  0.33333300055736304  0.35457200006536904  1.0000
  O   O2        1.0  0.3333330005573631  0.6666669994426369  0.645427999934631  1.0000
  O   O3        1.0  0.0  0.0  0.0  1.0000
