data_image0
_chemical_formula_structural       O10
_chemical_formula_sum              "O10"
_cell_length_a       5.160295627305688
_cell_length_b       5.240244733526972
_cell_length_c       5.890213142461611
_cell_angle_alpha    89.76482947391904
_cell_angle_beta     89.50319137167322
_cell_angle_gamma    90.25712912799794

_space_group_name_H-M_alt    "P 1"
_space_group_IT_number       1

loop_
  _space_group_symop_operation_xyz
  'x, y, z'

loop_
  _atom_site_type_symbol
  _atom_site_label
  _atom_site_symmetry_multiplicity
  _atom_site_fract_x
  _atom_site_fract_y
  _atom_site_fract_z
  _atom_site_occupancy
  O   O1        1.0  0.13371869991236277  0.5003815100472063  0.988550220155484  1.0000
  O   O2        1.0  0.9051182805293347  0.5735822807255593  0.9808968398171362  1.0000
  O   O3        1.0  0.6253664802842882  0.011911199252831678  0.5112374204216401  1.0000
  O   O4        1.0  0.39839266922967936  0.9327613905256952  0.5235955608423166  1.0000
  O   O5        1.0  0.49901807920771074  0.12910460026270604  0.014880689967634541  1.0000
  O   O6        1.0  0.5727603006928904  0.9038181897296488  0.018788449642484325  1.0000
  O   O7        1.0  0.07421328925860886  0.5856258806705255  0.4828342793350549  1.0000
  O   O8        1.0  0.013546940067576162  0.3560952104984379  0.4869870104640942  1.0000
  O   O9        1.0  0.3891324100725947  0.62160105919685  0.5005431104302002  1.0000
  O   O10       1.0  0.8887338592378339  0.8851186807940931  0.9916854404335744  1.0000
