data_image0
_chemical_formula_structural       ZrO2
_chemical_formula_sum              "Zr1 O2"
_cell_length_a       3.6415758814801595
_cell_length_b       3.6415758814801595
_cell_length_c       3.6415758814801595
_cell_angle_alpha    59.99999999999999
_cell_angle_beta     59.99999999999999
_cell_angle_gamma    59.99999999999999

_space_group_name_H-M_alt    "P 1"
_space_group_IT_number       1

loop_
  _space_group_symop_operation_xyz
  'x, y, z'

loop_
  _atom_site_type_symbol
  _atom_site_label
  _atom_site_symmetry_multiplicity
  _atom_site_fract_x
  _atom_site_fract_y
  _atom_site_fract_z
  _atom_site_occupancy
  Zr  Zr1       1.0  0.0  0.0  0.0  1.0000
  O   O1        1.0  0.75  0.75  0.7499999999999999  1.0000
  O   O2        1.0  0.25  0.25  0.25  1.0000
