data_image0
_chemical_formula_structural       O12
_chemical_formula_sum              "O12"
_cell_length_a       4.930603377724734
_cell_length_b       5.122182029632558
_cell_length_c       7.899176634616514
_cell_angle_alpha    89.37264689990855
_cell_angle_beta     88.93130504571334
_cell_angle_gamma    90.12042519005351

_space_group_name_H-M_alt    "P 1"
_space_group_IT_number       1

loop_
  _space_group_symop_operation_xyz
  'x, y, z'

loop_
  _atom_site_type_symbol
  _atom_site_label
  _atom_site_symmetry_multiplicity
  _atom_site_fract_x
  _atom_site_fract_y
  _atom_site_fract_z
  _atom_site_occupancy
  O   O1        1.0  0.5779352596429874  0.270458860724749  0.49885964963447027  1.0000
  O   O2        1.0  0.4100023806556475  0.7188588690999365  0.9956942299473936  1.0000
  O   O3        1.0  0.7732852291951432  0.9141229290880132  0.2439230606471608  1.0000
  O   O4        1.0  0.22863622926985044  0.08818517922488685  0.7514828201600839  1.0000
  O   O5        1.0  0.7246777308844505  0.4155614309278181  0.003755819704858508  1.0000
  O   O6        1.0  0.2828750698144813  0.591865560853276  0.5004246101365379  1.0000
  O   O7        1.0  0.9164845106963471  0.7807106693565203  0.7471311195760856  1.0000
  O   O8        1.0  0.0818349605992108  0.22370012935340303  0.25835173048495963  1.0000
  O   O9        1.0  0.9763544693692655  0.024683879269012908  0.7506314494401685  1.0000
  O   O10       1.0  0.024406349316627274  0.9793079490976282  0.2514085802718685  1.0000
  O   O11       1.0  0.5315809093681495  0.5169461902219105  0.4984267699163445  1.0000
  O   O12       1.0  0.47192688973132413  0.4755993505267443  0.9999101705511302  1.0000
