data_image0
_chemical_formula_structural       LiO3
_chemical_formula_sum              "Li1 O3"
_cell_length_a       3.16313887
_cell_length_b       4.011333324237797
_cell_length_c       4.011333324237797
_cell_angle_alpha    76.83765657200367
_cell_angle_beta     66.7792192175844
_cell_angle_gamma    66.7792192175844

_space_group_name_H-M_alt    "P 1"
_space_group_IT_number       1

loop_
  _space_group_symop_operation_xyz
  'x, y, z'

loop_
  _atom_site_type_symbol
  _atom_site_label
  _atom_site_symmetry_multiplicity
  _atom_site_fract_x
  _atom_site_fract_y
  _atom_site_fract_z
  _atom_site_occupancy
  Li  Li1       1.0  0.4833702215976175  0.5166297799305171  0.5166297799305173  1.0000
  O   O1        1.0  0.985181379251953  0.01481862070119898  0.014818620701198982  1.0000
  O   O2        1.0  0.12562419991842574  0.10063208115446799  0.6481195198029814  1.0000
  O   O3        1.0  0.12562419991842577  0.6481195198029812  0.10063208115446814  1.0000
