data_image0
_chemical_formula_structural       LiO8
_chemical_formula_sum              "Li1 O8"
_cell_length_a       4.343358016673044
_cell_length_b       5.0914875653521925
_cell_length_c       5.091488050092232
_cell_angle_alpha    71.42876833178302
_cell_angle_beta     71.74299046633926
_cell_angle_gamma    71.74298953759588

_space_group_name_H-M_alt    "P 1"
_space_group_IT_number       1

loop_
  _space_group_symop_operation_xyz
  'x, y, z'

loop_
  _atom_site_type_symbol
  _atom_site_label
  _atom_site_symmetry_multiplicity
  _atom_site_fract_x
  _atom_site_fract_y
  _atom_site_fract_z
  _atom_site_occupancy
  Li  Li1       1.0  0.5  0.49999999999999994  0.5  1.0000
  O   O1        1.0  0.8429939990200904  0.295804000861654  0.7663379990896879  1.0000
  O   O2        1.0  0.15700599992133965  0.2336620005075396  0.704195999560893  1.0000
  O   O3        1.0  0.1570060009799096  0.7041959991383461  0.23366200091031214  1.0000
  O   O4        1.0  0.8429940000786604  0.7663379994924604  0.2958040004391071  1.0000
  O   O5        1.0  0.8399320003493942  0.2243720009901369  0.22437199868685498  1.0000
  O   O6        1.0  0.1600679996506058  0.775627999009863  0.775628001313145  1.0000
  O   O7        1.0  0.15045999950956016  0.16299099901087724  0.16299100102881195  1.0000
  O   O8        1.0  0.8495400004904399  0.8370090009891227  0.8370089989711881  1.0000
