data_image0
_chemical_formula_structural       Li68O34
_chemical_formula_sum              "Li68 O34"
_cell_length_a       9.57315286048389
_cell_length_b       10.146053833375737
_cell_length_c       10.103667335096562
_cell_angle_alpha    86.13106150749226
_cell_angle_beta     89.99998415151302
_cell_angle_gamma    90.33052089845546

_space_group_name_H-M_alt    "P 1"
_space_group_IT_number       1

loop_
  _space_group_symop_operation_xyz
  'x, y, z'

loop_
  _atom_site_type_symbol
  _atom_site_label
  _atom_site_symmetry_multiplicity
  _atom_site_fract_x
  _atom_site_fract_y
  _atom_site_fract_z
  _atom_site_occupancy
  Li  Li1       1.0  0.7356090802689041  0.29166008007697203  0.43267114987950817  1.0000
  Li  Li2       1.0  0.2062902402966463  0.3487344399351515  0.6387328900636747  1.0000
  Li  Li3       1.0  0.9403239304183681  0.8440043102329806  0.9689474795930856  1.0000
  Li  Li4       1.0  0.1575681404666082  0.9661311102188433  0.14521223980348524  1.0000
  Li  Li5       1.0  0.7398611095411175  0.8214434798285791  0.19359324020760302  1.0000
  Li  Li6       1.0  0.8520022894926523  0.49104744994850796  0.5462997701103337  1.0000
  Li  Li7       1.0  0.19748958005839287  0.7709777198294091  0.852516150443316  1.0000
  Li  Li8       1.0  0.8844908195032833  0.33612880974005377  0.24700920034497684  1.0000
  Li  Li9       1.0  0.19586111028308334  0.3953191204125304  0.20868635960520285  1.0000
  Li  Li10      1.0  0.10491843022302817  0.6103156402413986  0.5317496097678431  1.0000
  Li  Li11      1.0  0.4980418598849318  0.5527481102571385  0.9521090700219835  1.0000
  Li  Li12      1.0  0.28896269048726325  0.5785834703404893  0.06008354034649861  1.0000
  Li  Li13      1.0  0.6162496103971565  0.7058751401354978  0.5238521697126646  1.0000
  Li  Li14      1.0  0.9495007502046416  0.3104081197056007  0.4740933602401069  1.0000
  Li  Li15      1.0  0.4238640298141425  0.45646851025436097  0.7603390196040288  1.0000
  Li  Li16      1.0  0.41879963040208745  0.23724819001848726  0.6459181700636206  1.0000
  Li  Li17      1.0  0.8223610601325534  0.5417198996348969  0.17188932050382108  1.0000
  Li  Li18      1.0  0.2662226701361556  0.28053412970164837  0.9652206798857187  1.0000
  Li  Li19      1.0  0.1602572299226361  0.9773167896090228  0.9244262503153501  1.0000
  Li  Li20      1.0  0.25953570000375387  0.3917728599468983  0.4229559100633639  1.0000
  Li  Li21      1.0  0.649528240233211  0.302227760265303  0.12963388000215378  1.0000
  Li  Li22      1.0  0.23883833972694057  0.8255485097393953  0.6212587903855089  1.0000
  Li  Li23      1.0  0.4258943996008578  0.5693930203750096  0.42158661010406  1.0000
  Li  Li24      1.0  0.8232141796397884  0.6623045795023131  0.39400621038309663  1.0000
  Li  Li25      1.0  0.04931694984184058  0.15984932965270224  0.878813770297363  1.0000
  Li  Li26      1.0  0.5192617501086892  0.894631949767143  0.10857961005681548  1.0000
  Li  Li27      1.0  0.44639353035025886  0.8125940197502913  0.35060482025631745  1.0000
  Li  Li28      1.0  0.8660786097129416  0.12929650036592055  0.6835457296284707  1.0000
  Li  Li29      1.0  0.6868909596198151  0.6425529204356397  0.7481915998476906  1.0000
  Li  Li30      1.0  0.7377434097107879  0.9475646902716541  0.7970135496950886  1.0000
  Li  Li31      1.0  0.45903947038755466  0.8131057204185465  0.8573337299606235  1.0000
  Li  Li32      1.0  0.4490648705182236  0.23464325002813216  0.3971178004035699  1.0000
  Li  Li33      1.0  0.7182894798858108  0.2943142598549063  0.8118830300596813  1.0000
  Li  Li34      1.0  0.2660252303695264  0.05943012027912289  0.6265503901444851  1.0000
  Li  Li35      1.0  0.18057020978967592  0.8482149703354354  0.39523795959835006  1.0000
  Li  Li36      1.0  0.6469734804133251  0.5114175200649997  0.3031600900006434  1.0000
  Li  Li37      1.0  0.9544674003253206  0.6291265196318693  0.7349181900463821  1.0000
  Li  Li38      1.0  0.15228936972801074  0.5200641496612438  0.8308123004289362  1.0000
  Li  Li39      1.0  0.0696800700305455  0.9968502101499622  0.706826150488435  1.0000
  Li  Li40      1.0  0.6166748801246497  0.40933189977876133  0.6426479801354111  1.0000
  Li  Li41      1.0  0.5367603299088806  0.09949205044449563  0.1965279797943174  1.0000
  Li  Li42      1.0  0.960229590398182  0.3515237796354458  0.004155709713063024  1.0000
  Li  Li43      1.0  0.33005009051577816  0.04572179027016337  0.3858261497168493  1.0000
  Li  Li44      1.0  0.6650213805196109  0.6773066796983873  0.02836641961399317  1.0000
  Li  Li45      1.0  0.11757197953806652  0.14598140972826673  0.425398309576165  1.0000
  Li  Li46      1.0  0.012878169750539119  0.7378525395941742  0.1772410200572979  1.0000
  Li  Li47      1.0  0.6214215103238047  0.06010643003879568  0.4476786904039388  1.0000
  Li  Li48      1.0  0.3087548599444199  0.13978133975227522  0.1571522395325261  1.0000
  Li  Li49      1.0  0.0771324496974537  0.20132041015136937  0.20462788045308453  1.0000
  Li  Li50      1.0  0.7499990499479644  0.45215017018131826  0.9478772199036386  1.0000
  Li  Li51      1.0  0.4976519800491517  0.6270495202407395  0.187788150482856  1.0000
  Li  Li52      1.0  0.0081603200554512  0.5128861802943429  0.3392335796061005  1.0000
  Li  Li53      1.0  0.31003204039406107  0.8125025698297302  0.09863128997993369  1.0000
  Li  Li54      1.0  0.36454849007315715  0.09988081018217494  0.8356086701458778  1.0000
  Li  Li55      1.0  0.9632116000179612  0.372886620327411  0.715331639503356  1.0000
  Li  Li56      1.0  0.314180989987058  0.6087593397744672  0.6213314496579599  1.0000
  Li  Li57      1.0  0.22453622021646588  0.6494596595612566  0.3264719696097869  1.0000
  Li  Li58      1.0  0.9837199299990095  0.5835247103030988  0.011256810483248612  1.0000
  Li  Li59      1.0  0.9859195302016325  0.7958186603112278  0.5298661900270156  1.0000
  Li  Li60      1.0  0.7784570404526501  0.11389310009509827  0.24203368037635212  1.0000
  Li  Li61      1.0  0.8378821703788633  0.07745774961014612  0.004871140451945295  1.0000
  Li  Li62      1.0  0.6059776502138153  0.13784317984769856  0.9763873899872001  1.0000
  Li  Li63      1.0  0.5028939498345416  0.33014865980620867  0.9174261601353545  1.0000
  Li  Li64      1.0  0.7529359000802408  0.8439381501112483  0.6200526097790826  1.0000
  Li  Li65      1.0  0.9185392195772651  0.032786159904602825  0.46289640005259336  1.0000
  Li  Li66      1.0  0.6324372596554194  0.14222441028101748  0.6409827104146347  1.0000
  Li  Li67      1.0  0.44556360952071744  0.3841056597429483  0.16565017970876655  1.0000
  Li  Li68      1.0  0.4794024401306069  0.9414530198287249  0.6646827399733292  1.0000
  O   O1        1.0  0.1314087502283409  0.8107620701762949  0.03360157011381894  1.0000
  O   O2        1.0  0.0816014802106826  0.4309424998470177  0.5198693399107895  1.0000
  O   O3        1.0  0.14072865007111673  0.13227199958880004  0.04505263030605768  1.0000
  O   O4        1.0  0.45519983973273165  0.22401988048007776  0.06728593999740917  1.0000
  O   O5        1.0  0.7977360503646882  0.30601057955318073  0.6265172604799198  1.0000
  O   O6        1.0  0.6234555499870482  0.20892607005863148  0.3152463497110762  1.0000
  O   O7        1.0  0.33402396035548065  0.5202969796465938  0.2535554196271833  1.0000
  O   O8        1.0  0.7856059705016786  0.25796593984084565  0.996993010116126  1.0000
  O   O9        1.0  0.036300969677613995  0.7109568298450223  0.3630900696786536  1.0000
  O   O10       1.0  0.017142699857537587  0.4468532096749304  0.1549531396555686  1.0000
  O   O11       1.0  0.8169920195602282  0.46272880040875386  0.36656004044391943  1.0000
  O   O12       1.0  0.6243228702328366  0.4933683901936341  0.11372842009315967  1.0000
  O   O13       1.0  0.6101126604164674  0.6989652101896862  0.3368365303533358  1.0000
  O   O14       1.0  0.111627460044645  0.9683521599362882  0.521787640273653  1.0000
  O   O15       1.0  0.7658206797580182  0.01935343982759988  0.5764484903974036  1.0000
  O   O16       1.0  0.9571375202016466  0.48274802970199926  0.8595642304447372  1.0000
  O   O17       1.0  0.54232700014078  0.18895932988233438  0.7933982396990914  1.0000
  O   O18       1.0  0.4636576898432073  0.7313627999799155  0.029678400096144714  1.0000
  O   O19       1.0  0.819983570152541  0.6746769401463725  0.5901532802591921  1.0000
  O   O20       1.0  0.685218139745857  0.9932767302959272  0.11955305988314524  1.0000
  O   O21       1.0  0.9288963001844773  0.005554290333970688  0.8450054898811573  1.0000
  O   O22       1.0  0.3003287294816655  0.9247978098430669  0.781070569679751  1.0000
  O   O23       1.0  0.6076404102034828  0.812773119887079  0.7377182904859685  1.0000
  O   O24       1.0  0.2576438202958017  0.2295147903951527  0.3184501604549779  1.0000
  O   O25       1.0  0.34659507029388614  0.9413426301860272  0.23065048952473524  1.0000
  O   O26       1.0  0.6097822000315882  0.48021853989586855  0.8124295896449037  1.0000
  O   O27       1.0  0.44644657024650397  0.08778333980662702  0.5353057901840278  1.0000
  O   O28       1.0  0.9400714299451687  0.1770290398796331  0.3402464698201954  1.0000
  O   O29       1.0  0.4035692300616253  0.4256154495824153  0.5755695703775962  1.0000
  O   O30       1.0  0.8470336596466707  0.711224840179954  0.08042887966153398  1.0000
  O   O31       1.0  0.3190230395487244  0.46434733997640426  0.918136930069517  1.0000
  O   O32       1.0  0.3243776797560357  0.7243002495050934  0.47262150018960186  1.0000
  O   O33       1.0  0.18517274049336802  0.1907831200873786  0.7388990999188689  1.0000
  O   O34       1.0  0.14464405988902232  0.6736365698372332  0.7044159896265372  1.0000
