data_image0
_chemical_formula_structural       Li2La4O7
_chemical_formula_sum              "Li2 La4 O7"
_cell_length_a       6.367769001091277
_cell_length_b       6.367902418960109
_cell_length_c       7.515175006604304
_cell_angle_alpha    90.00413854768767
_cell_angle_beta     89.99791497579426
_cell_angle_gamma    120.00051758536985

_space_group_name_H-M_alt    "P 1"
_space_group_IT_number       1

loop_
  _space_group_symop_operation_xyz
  'x, y, z'

loop_
  _atom_site_type_symbol
  _atom_site_label
  _atom_site_symmetry_multiplicity
  _atom_site_fract_x
  _atom_site_fract_y
  _atom_site_fract_z
  _atom_site_occupancy
  Li  Li1       1.0  0.33331900015352195  0.6666169992172204  0.9999500005173312  1.0000
  Li  Li2       1.0  0.6666799994483704  0.33329800045330366  0.999949999641278  1.0000
  La  La1       1.0  0.9999999991872538  0.9999689992278865  0.27767600009539767  1.0000
  La  La2       1.0  0.9999990007935894  7.000597474849481e-06  0.7223409995706073  1.0000
  La  La3       1.0  0.33333300006924216  0.6666610001111378  0.5000009996137169  1.0000
  La  La4       1.0  0.6666719990351733  0.3333249991190522  0.49999399941331024  1.0000
  O   O1        1.0  0.9999990000458897  0.6354309995820098  0.32038099954823607  1.0000
  O   O2        1.0  5.254412540414723e-10  0.36455400059984655  0.6796539999297507  1.0000
  O   O3        1.0  1.7248914721362598e-10  0.9999879993022289  0.9999959997849484  1.0000
  O   O4        1.0  0.3645350008951513  0.36450900070699416  0.3203969994500527  1.0000
  O   O5        1.0  0.635452000200445  0.6354600001298651  0.6796310006002529  1.0000
  O   O6        1.0  0.36454700017956443  7.000161567430305e-06  0.6796309999823044  1.0000
  O   O7        1.0  0.6354640002501676  0.9999759997374411  0.32039700011775174  1.0000
