data_image0
_chemical_formula_structural       LiO8
_chemical_formula_sum              "Li1 O8"
_cell_length_a       5.0219757332389605
_cell_length_b       5.086811637681211
_cell_length_c       5.086811808215142
_cell_angle_alpha    73.62917574779402
_cell_angle_beta     61.67015835472936
_cell_angle_gamma    61.67016344398837

_space_group_name_H-M_alt    "P 1"
_space_group_IT_number       1

loop_
  _space_group_symop_operation_xyz
  'x, y, z'

loop_
  _atom_site_type_symbol
  _atom_site_label
  _atom_site_symmetry_multiplicity
  _atom_site_fract_x
  _atom_site_fract_y
  _atom_site_fract_z
  _atom_site_occupancy
  Li  Li1       1.0  0.49999999987919136  0.7518689993118712  0.2481310000333068  1.0000
  O   O1        1.0  0.8476550000888827  0.3176670002800537  0.7889599993292267  1.0000
  O   O2        1.0  0.15234500132406356  0.21103999898298884  0.6823329999054071  1.0000
  O   O3        1.0  0.15536799957863795  0.6758140010216378  0.20184499894995317  1.0000
  O   O4        1.0  0.8446319990678819  0.7981549992691716  0.32418600144453075  1.0000
  O   O5        1.0  0.840161999695084  0.26819799912544307  0.23665699995234493  1.0000
  O   O6        1.0  0.15983800010851457  0.7633430003109445  0.7318019989451195  1.0000
  O   O7        1.0  0.1503770005200792  0.16663499910699228  0.11938799915140101  1.0000
  O   O8        1.0  0.8496220011470285  0.8806119999905272  0.8333649993757558  1.0000
