data_image0
_chemical_formula_structural       O6
_chemical_formula_sum              "O6"
_cell_length_a       5.184724601396387
_cell_length_b       5.184724562132978
_cell_length_c       5.184724499018988
_cell_angle_alpha    56.86540237724237
_cell_angle_beta     56.86540362405561
_cell_angle_gamma    56.8654008000149

_space_group_name_H-M_alt    "P 1"
_space_group_IT_number       1

loop_
  _space_group_symop_operation_xyz
  'x, y, z'

loop_
  _atom_site_type_symbol
  _atom_site_label
  _atom_site_symmetry_multiplicity
  _atom_site_fract_x
  _atom_site_fract_y
  _atom_site_fract_z
  _atom_site_occupancy
  O   O1        1.0  0.07311796020417977  0.9318389398787467  0.7351741108377835  1.0000
  O   O2        1.0  0.9318389403845054  0.735174108834979  0.07311795972838925  1.0000
  O   O3        1.0  0.7351741110588297  0.07311795912810196  0.931838939789656  1.0000
  O   O4        1.0  0.23517410975639672  0.43183894066183454  0.5731179596459121  1.0000
  O   O5        1.0  0.5731179592824883  0.23517411056311857  0.43183894025658115  1.0000
  O   O6        1.0  0.4318389406176261  0.5731179591049422  0.23517410922516604  1.0000
