data_image0
_chemical_formula_structural       Zr24O48
_chemical_formula_sum              "Zr24 O48"
_cell_length_a       3.67026153
_cell_length_b       3.61613149
_cell_length_c       67.48696037
_cell_angle_alpha    90.0
_cell_angle_beta     90.0
_cell_angle_gamma    90.0

_space_group_name_H-M_alt    "P 1"
_space_group_IT_number       1

loop_
  _space_group_symop_operation_xyz
  'x, y, z'

loop_
  _atom_site_type_symbol
  _atom_site_label
  _atom_site_symmetry_multiplicity
  _atom_site_fract_x
  _atom_site_fract_y
  _atom_site_fract_z
  _atom_site_occupancy
  Zr  Zr1       1.0  0.24999999931884964  0.7500000006913465  0.16776492003680382  1.0000
  Zr  Zr2       1.0  0.24999999931884964  0.7500000006913465  0.24726451996818535  1.0000
  Zr  Zr3       1.0  0.24999999931884964  0.7500000006913465  0.3261728699783786  1.0000
  Zr  Zr4       1.0  0.24999999931884964  0.7500000006913465  0.4040713200075038  1.0000
  Zr  Zr5       1.0  0.24999999931884964  0.7500000006913465  0.4804403999266976  1.0000
  Zr  Zr6       1.0  0.24999999931884964  0.7500000006913465  0.5571292900711805  1.0000
  Zr  Zr7       1.0  0.24999999931884964  0.7500000006913465  0.6342526899318994  1.0000
  Zr  Zr8       1.0  0.24999999931884964  0.7500000006913465  0.7115123199613738  1.0000
  Zr  Zr9       1.0  0.24999999931884964  0.7500000006913465  0.7902275000624687  1.0000
  Zr  Zr10      1.0  0.24999999931884964  0.7500000006913465  0.8694187399805098  1.0000
  Zr  Zr11      1.0  0.24999999931884964  0.7500000006913465  0.949084649965544  1.0000
  Zr  Zr12      1.0  0.7500000006811504  0.24999999930865346  0.056437579928301625  1.0000
  Zr  Zr13      1.0  0.7500000006811504  0.24999999930865346  0.20781826004767798  1.0000
  Zr  Zr14      1.0  0.7500000006811504  0.24999999930865346  0.12810305994820137  1.0000
  Zr  Zr15      1.0  0.7500000006811504  0.24999999930865346  0.3654303300191737  1.0000
  Zr  Zr16      1.0  0.7500000006811504  0.24999999930865346  0.2870189800192952  1.0000
  Zr  Zr17      1.0  0.7500000006811504  0.24999999930865346  0.5187555699361838  1.0000
  Zr  Zr18      1.0  0.7500000006811504  0.24999999930865346  0.4427231399398111  1.0000
  Zr  Zr19      1.0  0.7500000006811504  0.24999999930865346  0.6727874300615799  1.0000
  Zr  Zr20      1.0  0.7500000006811504  0.24999999930865346  0.5961470500290069  1.0000
  Zr  Zr21      1.0  0.7500000006811504  0.24999999930865346  0.8299702900072989  1.0000
  Zr  Zr22      1.0  0.7500000006811504  0.24999999930865346  0.7510244000044003  1.0000
  Zr  Zr23      1.0  0.7500000006811504  0.24999999930865346  0.9893681499942177  1.0000
  Zr  Zr24      1.0  0.7500000006811504  0.24999999930865346  0.9094245300649625  1.0000
  O   O1        1.0  0.24999999931884964  0.24999999930865346  0.06714055997125952  1.0000
  O   O2        1.0  0.24999999931884964  0.24999999930865346  0.1422021099688772  1.0000
  O   O3        1.0  0.24999999931884964  0.24999999930865346  0.18320720998861603  1.0000
  O   O4        1.0  0.24999999931884964  0.24999999930865346  0.223274789935542  1.0000
  O   O5        1.0  0.24999999931884964  0.24999999930865346  0.2631722399797867  1.0000
  O   O6        1.0  0.24999999931884964  0.24999999930865346  0.30275907001855085  1.0000
  O   O7        1.0  0.24999999931884964  0.24999999930865346  0.3423215999556211  1.0000
  O   O8        1.0  0.24999999931884964  0.24999999930865346  0.3814614100095674  1.0000
  O   O9        1.0  0.24999999931884964  0.24999999930865346  0.42058849004877763  1.0000
  O   O10       1.0  0.24999999931884964  0.24999999930865346  0.4593054099644879  1.0000
  O   O11       1.0  0.24999999931884964  0.24999999930865346  0.5329025699605678  1.0000
  O   O12       1.0  0.24999999931884964  0.24999999930865346  0.6115098200265854  1.0000
  O   O13       1.0  0.24999999931884964  0.24999999930865346  0.5724078100155808  1.0000
  O   O14       1.0  0.24999999931884964  0.24999999930865346  0.686368520022885  1.0000
  O   O15       1.0  0.24999999931884964  0.24999999930865346  0.7260598299487465  1.0000
  O   O16       1.0  0.24999999931884964  0.24999999930865346  0.7653758100351674  1.0000
  O   O17       1.0  0.24999999931884964  0.24999999930865346  0.8048757099474622  1.0000
  O   O18       1.0  0.24999999931884964  0.24999999930865346  0.844303739975954  1.0000
  O   O19       1.0  0.24999999931884964  0.24999999930865346  0.8839783400071363  1.0000
  O   O20       1.0  0.24999999931884964  0.24999999930865346  0.9235615200074537  1.0000
  O   O21       1.0  0.24999999931884964  0.24999999930865346  0.9632174700654694  1.0000
  O   O22       1.0  0.24999999931884964  0.24999999930865346  0.003007200041124033  1.0000
  O   O23       1.0  0.7500000006811504  0.7500000006913465  0.013233210017219804  1.0000
  O   O24       1.0  0.7500000006811504  0.7500000006913465  0.0330786000400806  1.0000
  O   O25       1.0  0.7500000006811504  0.7500000006913465  0.07040788996791499  1.0000
  O   O26       1.0  0.7500000006811504  0.7500000006913465  0.15396468996429924  1.0000
  O   O27       1.0  0.7500000006811504  0.7500000006913465  0.11455677004289413  1.0000
  O   O28       1.0  0.7500000006811504  0.7500000006913465  0.19316881007127212  1.0000
  O   O29       1.0  0.7500000006811504  0.7500000006913465  0.35019794995102393  1.0000
  O   O30       1.0  0.7500000006811504  0.7500000006913465  0.23268567992848244  1.0000
  O   O31       1.0  0.7500000006811504  0.7500000006913465  0.31134925998742236  1.0000
  O   O32       1.0  0.7500000006811504  0.7500000006913465  0.2720279499824804  1.0000
  O   O33       1.0  0.7500000006811504  0.7500000006913465  0.54173322993892  1.0000
  O   O34       1.0  0.7500000006811504  0.7500000006913465  0.5028507999759538  1.0000
  O   O35       1.0  0.7500000006811504  0.7500000006913465  0.38893060994443474  1.0000
  O   O36       1.0  0.7500000006811504  0.7500000006913465  0.4652539300608005  1.0000
  O   O37       1.0  0.7500000006811504  0.7500000006913465  0.6957201800552807  1.0000
  O   O38       1.0  0.7500000006811504  0.7500000006913465  0.4270879999925532  1.0000
  O   O39       1.0  0.7500000006811504  0.7500000006913465  0.6564969799661462  1.0000
  O   O40       1.0  0.7500000006811504  0.7500000006913465  0.6187472099952869  1.0000
  O   O41       1.0  0.7500000006811504  0.7500000006913465  0.7741946200206378  1.0000
  O   O42       1.0  0.7500000006811504  0.7500000006913465  0.8534211999508372  1.0000
  O   O43       1.0  0.7500000006811504  0.7500000006913465  0.5801898200086322  1.0000
  O   O44       1.0  0.7500000006811504  0.7500000006913465  0.8136477100013149  1.0000
  O   O45       1.0  0.7500000006811504  0.7500000006913465  0.9333483300279211  1.0000
  O   O46       1.0  0.7500000006811504  0.7500000006913465  0.7347615799872776  1.0000
  O   O47       1.0  0.7500000006811504  0.7500000006913465  0.9738587399650578  1.0000
  O   O48       1.0  0.7500000006811504  0.7500000006913465  0.8932120099869894  1.0000
