data_image0
_chemical_formula_structural       Li2O4
_chemical_formula_sum              "Li2 O4"
_cell_length_a       4.023615185718738
_cell_length_b       4.316672875514232
_cell_length_c       4.316672875514232
_cell_angle_alpha    87.23695785883183
_cell_angle_beta     119.28987939051042
_cell_angle_gamma    119.28987939051042

_space_group_name_H-M_alt    "P 1"
_space_group_IT_number       1

loop_
  _space_group_symop_operation_xyz
  'x, y, z'

loop_
  _atom_site_type_symbol
  _atom_site_label
  _atom_site_symmetry_multiplicity
  _atom_site_fract_x
  _atom_site_fract_y
  _atom_site_fract_z
  _atom_site_occupancy
  Li  Li1       1.0  0.4999999976295241  0.7412513883223057  0.2587486093729412  1.0000
  Li  Li2       1.0  0.4999999976295241  0.25874860937294114  0.7412513883223057  1.0000
  O   O1        1.0  0.9999999999999999  0.7949328006599831  0.20506719934001685  1.0000
  O   O2        1.0  0.9999999999999999  0.2050671993400167  0.7949328006599831  1.0000
  O   O3        1.0  0.41340726990436666  0.21279313067453853  0.21279313067453853  1.0000
  O   O4        1.0  0.5865927300956334  0.7872068693254615  0.7872068693254615  1.0000
