data_image0
_chemical_formula_structural       La6Zr2
_chemical_formula_sum              "La6 Zr2"
_cell_length_a       7.20375563
_cell_length_b       7.203755321111913
_cell_length_c       5.87699034
_cell_angle_alpha    90.0
_cell_angle_beta     90.0
_cell_angle_gamma    120.00000605635061

_space_group_name_H-M_alt    "P 1"
_space_group_IT_number       1

loop_
  _space_group_symop_operation_xyz
  'x, y, z'

loop_
  _atom_site_type_symbol
  _atom_site_label
  _atom_site_symmetry_multiplicity
  _atom_site_fract_x
  _atom_site_fract_y
  _atom_site_fract_z
  _atom_site_occupancy
  La  La1       1.0  0.1724996495570443  0.3449992896122001  0.24999900033866654  1.0000
  La  La2       1.0  0.6550007095337773  0.8275003495836981  0.24999900033866654  1.0000
  La  La3       1.0  0.1724986497019671  0.8275003495836981  0.24999900033866654  1.0000
  La  La4       1.0  0.8274993495761342  0.6550007103877998  0.7500000008507756  1.0000
  La  La5       1.0  0.34499828959940126  0.1724996504163019  0.7500000008507756  1.0000
  La  La6       1.0  0.8275003508193765  0.1724996504163019  0.7500000008507756  1.0000
  Zr  Zr1       1.0  0.333332999834447  0.666667000072947  0.7500000008507756  1.0000
  Zr  Zr2       1.0  0.666668000014372  0.3333340001458941  0.24999900033866654  1.0000
