data_image0
_chemical_formula_structural       Li2O4
_chemical_formula_sum              "Li2 O4"
_cell_length_a       2.961101
_cell_length_b       3.985669
_cell_length_c       4.89609
_cell_angle_alpha    90.0
_cell_angle_beta     90.0
_cell_angle_gamma    90.0

_space_group_name_H-M_alt    "P 1"
_space_group_IT_number       1

loop_
  _space_group_symop_operation_xyz
  'x, y, z'

loop_
  _atom_site_type_symbol
  _atom_site_label
  _atom_site_symmetry_multiplicity
  _atom_site_fract_x
  _atom_site_fract_y
  _atom_site_fract_z
  _atom_site_occupancy
  Li  Li1       1.0  0.5  0.49999999999999994  0.5  1.0000
  Li  Li2       1.0  0.0  0.0  0.0  1.0000
  O   O1        1.0  0.5  0.6318579992468014  0.08562299916872444  1.0000
  O   O2        1.0  0.5  0.3681420007531985  0.9143770008312755  1.0000
  O   O3        1.0  0.0  0.13185799924680147  0.4143770008312756  1.0000
  O   O4        1.0  0.0  0.8681420007531984  0.5856229991687244  1.0000
