data_image0
_chemical_formula_structural       LiO8
_chemical_formula_sum              "Li1 O8"
_cell_length_a       4.625938326672871
_cell_length_b       5.270288132101413
_cell_length_c       6.0595924336824005
_cell_angle_alpha    61.1199666530315
_cell_angle_beta     62.15496860734682
_cell_angle_gamma    69.35234031493174

_space_group_name_H-M_alt    "P 1"
_space_group_IT_number       1

loop_
  _space_group_symop_operation_xyz
  'x, y, z'

loop_
  _atom_site_type_symbol
  _atom_site_label
  _atom_site_symmetry_multiplicity
  _atom_site_fract_x
  _atom_site_fract_y
  _atom_site_fract_z
  _atom_site_occupancy
  Li  Li1       1.0  0.33578200080605364  0.722154001016159  0.42770599918157737  1.0000
  O   O1        1.0  0.8075710010126893  0.35393199909107137  0.8173130001311729  1.0000
  O   O2        1.0  0.1151779997786024  0.32416500032418977  0.728894999834425  1.0000
  O   O3        1.0  0.1170889990066301  0.6750630001046221  0.2280260003030501  1.0000
  O   O4        1.0  0.8020380008843254  0.7198969996277043  0.31910599958769253  1.0000
  O   O5        1.0  0.7853599996005347  0.16263400044170467  0.24349300058631873  1.0000
  O   O6        1.0  0.12724099876702863  0.8947950007321277  0.7354930000885311  1.0000
  O   O7        1.0  0.09306499983011685  0.12708200032769248  0.1632639993009291  1.0000
  O   O8        1.0  0.8166770000179531  0.9488489994257403  0.8247980000539766  1.0000
