data_image0
_chemical_formula_structural       O
_chemical_formula_sum              "O1"
_cell_length_a       1.52036647
_cell_length_b       3.095661732354572
_cell_length_c       4.714385698242563
_cell_angle_alpha    102.64009576995015
_cell_angle_beta     90.0
_cell_angle_gamma    90.0

_space_group_name_H-M_alt    "P 1"
_space_group_IT_number       1

loop_
  _space_group_symop_operation_xyz
  'x, y, z'

loop_
  _atom_site_type_symbol
  _atom_site_label
  _atom_site_symmetry_multiplicity
  _atom_site_fract_x
  _atom_site_fract_y
  _atom_site_fract_z
  _atom_site_occupancy
  O   O1        1.0  0.49999999671131923  0.0  0.5  1.0000
