data_image0
_chemical_formula_structural       Zr6O2
_chemical_formula_sum              "Zr6 O2"
_cell_length_a       6.173931754825445
_cell_length_b       6.173931754825445
_cell_length_c       6.173931258556253
_cell_angle_alpha    54.70759716370759
_cell_angle_beta     54.70759716370759
_cell_angle_gamma    54.7075931192967

_space_group_name_H-M_alt    "P 1"
_space_group_IT_number       1

loop_
  _space_group_symop_operation_xyz
  'x, y, z'

loop_
  _atom_site_type_symbol
  _atom_site_label
  _atom_site_symmetry_multiplicity
  _atom_site_fract_x
  _atom_site_fract_y
  _atom_site_fract_z
  _atom_site_occupancy
  Zr  Zr1       1.0  0.9096849999879826  0.2500000004762051  0.5903150003422735  1.0000
  Zr  Zr2       1.0  0.5903150004882227  0.9096849995117774  0.25  1.0000
  Zr  Zr3       1.0  0.24999999952379504  0.5903150000120174  0.9096849996577266  1.0000
  Zr  Zr4       1.0  0.09031500001201753  0.7499999995237949  0.40968499965772653  1.0000
  Zr  Zr5       1.0  0.4096849995117775  0.09031500048822258  0.75  1.0000
  Zr  Zr6       1.0  0.7500000004762051  0.40968499998798236  0.09031500034227347  1.0000
  O   O1        1.0  0.0  0.0  0.0  1.0000
  O   O2        1.0  0.5  0.5  0.5  1.0000
