data_image0
_chemical_formula_structural       LiO8
_chemical_formula_sum              "Li1 O8"
_cell_length_a       4.6492556265370055
_cell_length_b       5.673668763904534
_cell_length_c       5.673668708574549
_cell_angle_alpha    68.87925123617508
_cell_angle_beta     69.22566535292336
_cell_angle_gamma    69.2256543916317

_space_group_name_H-M_alt    "P 1"
_space_group_IT_number       1

loop_
  _space_group_symop_operation_xyz
  'x, y, z'

loop_
  _atom_site_type_symbol
  _atom_site_label
  _atom_site_symmetry_multiplicity
  _atom_site_fract_x
  _atom_site_fract_y
  _atom_site_fract_z
  _atom_site_occupancy
  Li  Li1       1.0  0.0  0.0  0.0  1.0000
  O   O1        1.0  0.8484300001397277  0.33884499942528923  0.7254040000790226  1.0000
  O   O2        1.0  0.15157000045455127  0.2745959992335507  0.6611549994814933  1.0000
  O   O3        1.0  0.15156999986027242  0.6611550005747108  0.27459599992097755  1.0000
  O   O4        1.0  0.8484299995454488  0.7254040007664494  0.33884500051850663  1.0000
  O   O5        1.0  0.8490089995462659  0.2526110003202209  0.2526110003011164  1.0000
  O   O6        1.0  0.15099100045373412  0.7473889996797791  0.7473889996988837  1.0000
  O   O7        1.0  0.14794899956875396  0.18877400076058953  0.18877400044791198  1.0000
  O   O8        1.0  0.852051000431246  0.8112259992394104  0.8112259995520881  1.0000
