data_image0
_chemical_formula_structural       La4
_chemical_formula_sum              "La4"
_cell_length_a       3.7711910694136144
_cell_length_b       3.7711910694136144
_cell_length_c       12.064932
_cell_angle_alpha    90.0
_cell_angle_beta     90.0
_cell_angle_gamma    119.99998367436149

_space_group_name_H-M_alt    "P 1"
_space_group_IT_number       1

loop_
  _space_group_symop_operation_xyz
  'x, y, z'

loop_
  _atom_site_type_symbol
  _atom_site_label
  _atom_site_symmetry_multiplicity
  _atom_site_fract_x
  _atom_site_fract_y
  _atom_site_fract_z
  _atom_site_occupancy
  La  La1       1.0  0.0  0.0  0.0  1.0000
  La  La2       1.0  0.0  0.0  0.5  1.0000
  La  La3       1.0  0.3333329995863374  0.6666670004136626  0.25  1.0000
  La  La4       1.0  0.6666670004136626  0.33333299958633744  0.7499999999999999  1.0000
