data_image0
_chemical_formula_structural       Zr2O4
_chemical_formula_sum              "Zr2 O4"
_cell_length_a       3.644746
_cell_length_b       3.644746
_cell_length_c       5.306352
_cell_angle_alpha    90.0
_cell_angle_beta     90.0
_cell_angle_gamma    90.0

_space_group_name_H-M_alt    "P 1"
_space_group_IT_number       1

loop_
  _space_group_symop_operation_xyz
  'x, y, z'

loop_
  _atom_site_type_symbol
  _atom_site_label
  _atom_site_symmetry_multiplicity
  _atom_site_fract_x
  _atom_site_fract_y
  _atom_site_fract_z
  _atom_site_occupancy
  Zr  Zr1       1.0  0.75  0.25  0.25  1.0000
  Zr  Zr2       1.0  0.25  0.75  0.75  1.0000
  O   O1        1.0  0.75  0.75  0.5551300007990424  1.0000
  O   O2        1.0  0.75  0.75  0.05513000079904235  1.0000
  O   O3        1.0  0.25  0.25  0.9448699992009576  1.0000
  O   O4        1.0  0.25  0.25  0.4448699992009576  1.0000
