data_image0
_chemical_formula_structural       Zr4O8
_chemical_formula_sum              "Zr4 O8"
_cell_length_a       5.233649151106721
_cell_length_b       5.2684599
_cell_length_c       5.418476207025741
_cell_angle_alpha    90.0
_cell_angle_beta     100.05484517713676
_cell_angle_gamma    90.0

_space_group_name_H-M_alt    "P 1"
_space_group_IT_number       1

loop_
  _space_group_symop_operation_xyz
  'x, y, z'

loop_
  _atom_site_type_symbol
  _atom_site_label
  _atom_site_symmetry_multiplicity
  _atom_site_fract_x
  _atom_site_fract_y
  _atom_site_fract_z
  _atom_site_occupancy
  Zr  Zr1       1.0  0.7240190906167587  0.9558199693234829  0.7897440093434074  1.0000
  Zr  Zr2       1.0  0.724019090622795  0.544180030676517  0.289744010267176  1.0000
  Zr  Zr3       1.0  0.2759809093772051  0.4558199693234829  0.710255989732824  1.0000
  Zr  Zr4       1.0  0.27598090938324127  0.04418003067651706  0.21025599065659267  1.0000
  O   O1        1.0  0.06101467000850003  0.1801776302786323  0.8546127098715017  1.0000
  O   O2        1.0  0.0610146700145362  0.3198223697213677  0.3546127107952704  1.0000
  O   O3        1.0  0.5470103302167046  0.2556744505163644  0.02193637095585912  1.0000
  O   O4        1.0  0.4529896697893316  0.7556744505163643  0.4780636299679096  1.0000
  O   O5        1.0  0.5470103302106685  0.2443255494836356  0.5219363700320905  1.0000
  O   O6        1.0  0.4529896697832954  0.7443255494836356  0.9780636290441409  1.0000
  O   O7        1.0  0.9389853299854639  0.6801776302786323  0.6453872892047295  1.0000
  O   O8        1.0  0.9389853299915  0.8198223697213677  0.14538729012849833  1.0000
