data_image0
_chemical_formula_structural       La16O24
_chemical_formula_sum              "La16 O24"
_cell_length_a       9.874298678342832
_cell_length_b       9.874298678342832
_cell_length_c       9.874298678342832
_cell_angle_alpha    109.47122063449069
_cell_angle_beta     109.47122063449069
_cell_angle_gamma    109.47122063449069

_space_group_name_H-M_alt    "P 1"
_space_group_IT_number       1

loop_
  _space_group_symop_operation_xyz
  'x, y, z'

loop_
  _atom_site_type_symbol
  _atom_site_label
  _atom_site_symmetry_multiplicity
  _atom_site_fract_x
  _atom_site_fract_y
  _atom_site_fract_z
  _atom_site_occupancy
  La  La1       1.0  0.24999999999999994  0.7209580000031574  0.47095800000315735  1.0000
  La  La2       1.0  0.029041999996842507  0.7499999999999999  0.7790419999968424  1.0000
  La  La3       1.0  0.7790419999968424  0.029041999996842618  0.7499999999999999  1.0000
  La  La4       1.0  0.47095800000315735  0.25  0.7209580000031574  1.0000
  La  La5       1.0  0.7209580000031574  0.47095800000315735  0.25  1.0000
  La  La6       1.0  0.7499999999999998  0.7790419999968424  0.029041999996842618  1.0000
  La  La7       1.0  0.7499999999999999  0.2790419999968426  0.5290419999968426  1.0000
  La  La8       1.0  0.9709580000031575  0.25  0.22095800000315738  1.0000
  La  La9       1.0  0.22095800000315752  0.9709580000031575  0.25  1.0000
  La  La10      1.0  0.5290419999968424  0.7499999999999999  0.2790419999968426  1.0000
  La  La11      1.0  0.2790419999968426  0.5290419999968426  0.7499999999999999  1.0000
  La  La12      1.0  0.25000000000000006  0.22095800000315738  0.9709580000031575  1.0000
  La  La13      1.0  0.0  0.5  0.0  1.0000
  La  La14      1.0  0.5  0.0  0.0  1.0000
  La  La15      1.0  0.0  0.0  0.5  1.0000
  La  La16      1.0  0.5  0.5  0.5  1.0000
  O   O1        1.0  0.026684000098931206  0.48946199996526873  0.7588880005346497  1.0000
  O   O2        1.0  0.23057399943061918  0.2677959995642815  0.7411119994653503  1.0000
  O   O3        1.0  0.2694260005693808  0.010538000034731177  0.03722200013366243  1.0000
  O   O4        1.0  0.23220400043571837  0.4627779998663375  0.47331599990106876  1.0000
  O   O5        1.0  0.4627779998663376  0.47331599990106876  0.2322040004357184  1.0000
  O   O6        1.0  0.7588880005346497  0.026684000098931255  0.48946199996526873  1.0000
  O   O7        1.0  0.2677959995642816  0.7411119994653503  0.2305739994306191  1.0000
  O   O8        1.0  0.037222000133662454  0.2694260005693809  0.010538000034731177  1.0000
  O   O9        1.0  0.48946199996526873  0.7588880005346497  0.026684000098931255  1.0000
  O   O10       1.0  0.7411119994653501  0.2305739994306191  0.2677959995642815  1.0000
  O   O11       1.0  0.010538000034731196  0.03722200013366243  0.2694260005693809  1.0000
  O   O12       1.0  0.47331599990106865  0.2322040004357184  0.4627779998663375  1.0000
  O   O13       1.0  0.9733159999010687  0.5105380000347312  0.24111199946535028  1.0000
  O   O14       1.0  0.7694260005693806  0.7322040004357183  0.25888800053464966  1.0000
  O   O15       1.0  0.730573999430619  0.9894619999652686  0.9627779998663375  1.0000
  O   O16       1.0  0.7677959995642815  0.5372220001336624  0.5266840000989312  1.0000
  O   O17       1.0  0.5266840000989311  0.7677959995642815  0.5372220001336624  1.0000
  O   O18       1.0  0.9894619999652686  0.9627779998663375  0.730573999430619  1.0000
  O   O19       1.0  0.25888800053464966  0.7694260005693808  0.7322040004357183  1.0000
  O   O20       1.0  0.510538000034731  0.24111199946535028  0.9733159999010687  1.0000
  O   O21       1.0  0.9627779998663373  0.730573999430619  0.9894619999652686  1.0000
  O   O22       1.0  0.7322040004357183  0.25888800053464966  0.7694260005693808  1.0000
  O   O23       1.0  0.24111199946535028  0.9733159999010687  0.5105380000347312  1.0000
  O   O24       1.0  0.5372220001336624  0.5266840000989312  0.7677959995642815  1.0000
