data_image0
_chemical_formula_structural       La4Zr4O14
_chemical_formula_sum              "La4 Zr4 O14"
_cell_length_a       7.702027677999606
_cell_length_b       7.702027677999606
_cell_length_c       7.702027677999606
_cell_angle_alpha    59.99999999999999
_cell_angle_beta     59.99999999999999
_cell_angle_gamma    59.99999999999999

_space_group_name_H-M_alt    "P 1"
_space_group_IT_number       1

loop_
  _space_group_symop_operation_xyz
  'x, y, z'

loop_
  _atom_site_type_symbol
  _atom_site_label
  _atom_site_symmetry_multiplicity
  _atom_site_fract_x
  _atom_site_fract_y
  _atom_site_fract_z
  _atom_site_occupancy
  La  La1       1.0  0.49999999999999994  0.0  0.5  1.0000
  La  La2       1.0  0.5  0.5  0.9999999999999999  1.0000
  La  La3       1.0  0.5  0.5  0.49999999999999994  1.0000
  La  La4       1.0  0.0  0.49999999999999994  0.5  1.0000
  Zr  Zr1       1.0  4.077088591017799e-17  0.5  0.0  1.0000
  Zr  Zr2       1.0  0.0  0.0  0.5  1.0000
  Zr  Zr3       1.0  0.0  0.0  0.0  1.0000
  Zr  Zr4       1.0  0.5  4.077088591017799e-17  0.0  1.0000
  O   O1        1.0  0.625  0.625  0.6249999999999999  1.0000
  O   O2        1.0  0.375  0.375  0.3749999999999999  1.0000
  O   O3        1.0  0.33291299955418097  0.9170870004458189  0.3329129995541809  1.0000
  O   O4        1.0  0.08291299955418097  0.6670870004458189  0.08291299955418095  1.0000
  O   O5        1.0  0.3329129995541809  0.3329129995541809  0.917087000445819  1.0000
  O   O6        1.0  0.3329129995541809  0.9170870004458189  0.917087000445819  1.0000
  O   O7        1.0  0.9170870004458189  0.33291299955418097  0.3329129995541809  1.0000
  O   O8        1.0  0.917087000445819  0.917087000445819  0.33291299955418086  1.0000
  O   O9        1.0  0.9170870004458189  0.3329129995541809  0.917087000445819  1.0000
  O   O10       1.0  0.08291299955418086  0.6670870004458188  0.667087000445819  1.0000
  O   O11       1.0  0.667087000445819  0.08291299955418102  0.08291299955418088  1.0000
  O   O12       1.0  0.6670870004458188  0.08291299955418086  0.667087000445819  1.0000
  O   O13       1.0  0.08291299955418101  0.08291299955418101  0.6670870004458189  1.0000
  O   O14       1.0  0.6670870004458191  0.6670870004458191  0.0829129995541808  1.0000
