data_image0
_chemical_formula_structural       Li4Zr2O6
_chemical_formula_sum              "Li4 Zr2 O6"
_cell_length_a       5.323292415467142
_cell_length_b       5.323292415467142
_cell_length_c       5.461435868304689
_cell_angle_alpha    78.87967751200108
_cell_angle_beta     78.87967751200108
_cell_angle_gamma    118.40413249811671

_space_group_name_H-M_alt    "P 1"
_space_group_IT_number       1

loop_
  _space_group_symop_operation_xyz
  'x, y, z'

loop_
  _atom_site_type_symbol
  _atom_site_label
  _atom_site_symmetry_multiplicity
  _atom_site_fract_x
  _atom_site_fract_y
  _atom_site_fract_z
  _atom_site_occupancy
  Li  Li1       1.0  0.7417279998460392  0.2582720001539608  0.25  1.0000
  Li  Li2       1.0  0.2582720001539608  0.7417279998460392  0.7500000000000001  1.0000
  Li  Li3       1.0  0.42405199959847734  0.5759480004015227  0.25  1.0000
  Li  Li4       1.0  0.5759480004015228  0.42405199959847734  0.7500000000000001  1.0000
  Zr  Zr1       1.0  0.09094699987512561  0.9090530001248744  0.25  1.0000
  Zr  Zr2       1.0  0.9090530001248744  0.09094699987512564  0.7500000000000001  1.0000
  O   O1        1.0  0.5  6.119392010853169e-18  0.0  1.0000
  O   O2        1.0  0.1546249999776419  0.3063539992566068  0.9872150000929013  1.0000
  O   O3        1.0  0.30635399925660683  0.15462499997764198  0.4872150000929012  1.0000
  O   O4        1.0  0.8453750000223581  0.6936460007433932  0.012784999907098873  1.0000
  O   O5        1.0  0.6936460007433932  0.8453750000223581  0.5127849999070989  1.0000
  O   O6        1.0  0.0  0.5  0.5  1.0000
