data_image0
_chemical_formula_structural       O2LaOLa
_chemical_formula_sum              "O3 La2"
_cell_length_a       6.2663070078132375
_cell_length_b       6.26725481681836
_cell_length_c       3.2997663573907787
_cell_angle_alpha    90.02073223939392
_cell_angle_beta     89.97909407559175
_cell_angle_gamma    120.07136847001497

_space_group_name_H-M_alt    "P 1"
_space_group_IT_number       1

loop_
  _space_group_symop_operation_xyz
  'x, y, z'

loop_
  _atom_site_type_symbol
  _atom_site_label
  _atom_site_symmetry_multiplicity
  _atom_site_fract_x
  _atom_site_fract_y
  _atom_site_fract_z
  _atom_site_occupancy
  O   O1        1.0  0.4920518803138681  0.49205844961219114  0.9999914400738433  1.0000
  O   O2        1.0  0.00012706015448249453  0.5077157203954865  5.006977863437397e-05  1.0000
  La  La1       1.0  0.3335389203754056  0.6666004198964166  0.5035593111517772  1.0000
  O   O3        1.0  0.5077392090187507  0.00013339938570688936  0.9999501699786625  1.0000
  La  La2       1.0  0.6665429301374926  0.33349201071019846  0.49644900901708244  1.0000
