data_image0
_chemical_formula_structural       La6O9
_chemical_formula_sum              "La6 O9"
_cell_length_a       7.6222240468776565
_cell_length_b       7.6222240468776565
_cell_length_c       9.224273773415227
_cell_angle_alpha    80.02384398959265
_cell_angle_beta     80.02384398959265
_cell_angle_gamma    28.85398649087748

_space_group_name_H-M_alt    "P 1"
_space_group_IT_number       1

loop_
  _space_group_symop_operation_xyz
  'x, y, z'

loop_
  _atom_site_type_symbol
  _atom_site_label
  _atom_site_symmetry_multiplicity
  _atom_site_fract_x
  _atom_site_fract_y
  _atom_site_fract_z
  _atom_site_occupancy
  La  La1       1.0  0.690431999971983  0.6904319999719829  0.8616630000167484  1.0000
  La  La2       1.0  0.36551399990209293  0.3655139999020928  0.492525999680899  1.0000
  La  La3       1.0  0.309568000028017  0.309568000028017  0.1383369999832516  1.0000
  La  La4       1.0  0.967048000350354  0.9670480003503538  0.8120109997293813  1.0000
  La  La5       1.0  0.6344860000979072  0.634486000097907  0.5074740003191011  1.0000
  La  La6       1.0  0.03295199964964613  0.03295199964964613  0.18798900027061885  1.0000
  O   O1        1.0  0.799700999651051  0.799700999651051  0.6272990005174374  1.0000
  O   O2        1.0  0.8718790003551813  0.8718790003551811  0.2863469996570987  1.0000
  O   O3        1.0  0.4741589996922933  0.4741589996922932  0.656650000176299  1.0000
  O   O4        1.0  0.8240720002880888  0.8240720002880888  0.9748509998792354  1.0000
  O   O5        1.0  0.17592799971191117  0.17592799971191111  0.02514900012076475  1.0000
  O   O6        1.0  0.20029900034894893  0.20029900034894893  0.37270099948256274  1.0000
  O   O7        1.0  0.5258410003077066  0.5258410003077066  0.3433499998237011  1.0000
  O   O8        1.0  0.12812099964481888  0.12812099964481882  0.7136530003429015  1.0000
  O   O9        1.0  0.5  0.5  0.0  1.0000
