data_image0
_chemical_formula_structural       Li8
_chemical_formula_sum              "Li8"
_cell_length_a       5.937189576115285
_cell_length_b       5.937189576115285
_cell_length_c       5.937189576115285
_cell_angle_alpha    109.47122063449069
_cell_angle_beta     109.47122063449069
_cell_angle_gamma    109.47122063449069

_space_group_name_H-M_alt    "P 1"
_space_group_IT_number       1

loop_
  _space_group_symop_operation_xyz
  'x, y, z'

loop_
  _atom_site_type_symbol
  _atom_site_label
  _atom_site_symmetry_multiplicity
  _atom_site_fract_x
  _atom_site_fract_y
  _atom_site_fract_z
  _atom_site_occupancy
  Li  Li1       1.0  0.48823599890076486  0.5  0.0  1.0000
  Li  Li2       1.0  1.9380695103646436e-17  0.48823599890076486  0.5  1.0000
  Li  Li3       1.0  0.5  0.0  0.9882359989007649  1.0000
  Li  Li4       1.0  1.9380695103646436e-17  0.9882359989007649  0.49999999999999994  1.0000
  Li  Li5       1.0  0.9882359989007649  0.49999999999999994  0.0  1.0000
  Li  Li6       1.0  0.5  0.0  0.48823599890076486  1.0000
  Li  Li7       1.0  0.011764001099235146  0.011764001099235146  0.011764001099235146  1.0000
  Li  Li8       1.0  0.5117640010992351  0.5117640010992351  0.5117640010992351  1.0000
