data_image0
_chemical_formula_structural       Li4O4
_chemical_formula_sum              "Li4 O4"
_cell_length_a       3.3361933453253276
_cell_length_b       3.3361933453253276
_cell_length_c       7.900475
_cell_angle_alpha    90.0
_cell_angle_beta     90.0
_cell_angle_gamma    119.99998701726051

_space_group_name_H-M_alt    "P 1"
_space_group_IT_number       1

loop_
  _space_group_symop_operation_xyz
  'x, y, z'

loop_
  _atom_site_type_symbol
  _atom_site_label
  _atom_site_symmetry_multiplicity
  _atom_site_fract_x
  _atom_site_fract_y
  _atom_site_fract_z
  _atom_site_occupancy
  Li  Li1       1.0  0.6666670006659219  0.33333299933407823  0.39762799958230355  1.0000
  Li  Li2       1.0  0.3333329993340781  0.6666670006659218  0.8976279995823035  1.0000
  Li  Li3       1.0  0.6666670006659219  0.33333299933407823  0.1023720004176964  1.0000
  Li  Li4       1.0  0.3333329993340781  0.6666670006659218  0.6023720004176963  1.0000
  O   O1        1.0  0.6666670006659219  0.33333299933407823  0.6538629993766197  1.0000
  O   O2        1.0  0.6666670006659219  0.33333299933407823  0.8461370006233802  1.0000
  O   O3        1.0  0.3333329993340781  0.6666670006659218  0.15386299937661976  1.0000
  O   O4        1.0  0.3333329993340781  0.6666670006659218  0.34613700062338026  1.0000
