data_image0
_chemical_formula_structural       Li
_chemical_formula_sum              "Li1"
_cell_length_a       3.057727958941745
_cell_length_b       3.057727964171382
_cell_length_c       3.05772796
_cell_angle_alpha    60.000000045127706
_cell_angle_beta     59.99999998855137
_cell_angle_gamma    60.00000004894391

_space_group_name_H-M_alt    "P 1"
_space_group_IT_number       1

loop_
  _space_group_symop_operation_xyz
  'x, y, z'

loop_
  _atom_site_type_symbol
  _atom_site_label
  _atom_site_symmetry_multiplicity
  _atom_site_fract_x
  _atom_site_fract_y
  _atom_site_fract_z
  _atom_site_occupancy
  Li  Li1       1.0  0.0  0.0  0.0  1.0000
