data_image0
_chemical_formula_structural       Li12Zr4O14
_chemical_formula_sum              "Li12 Zr4 O14"
_cell_length_a       6.087288579946329
_cell_length_b       6.087288579946329
_cell_length_c       10.32763399707179
_cell_angle_alpha    81.05996919705437
_cell_angle_beta     81.05996919705437
_cell_angle_gamma    59.714662260496475

_space_group_name_H-M_alt    "P 1"
_space_group_IT_number       1

loop_
  _space_group_symop_operation_xyz
  'x, y, z'

loop_
  _atom_site_type_symbol
  _atom_site_label
  _atom_site_symmetry_multiplicity
  _atom_site_fract_x
  _atom_site_fract_y
  _atom_site_fract_z
  _atom_site_occupancy
  Li  Li1       1.0  0.2954559997957449  0.5836659995713601  0.5857050001638701  1.0000
  Li  Li2       1.0  0.41633400042864005  0.7045440002042552  0.9142949998361299  1.0000
  Li  Li3       1.0  0.7045440002042551  0.41633400042864005  0.4142949998361299  1.0000
  Li  Li4       1.0  0.9675929990037424  0.1679219999501185  0.8978750004797997  1.0000
  Li  Li5       1.0  0.5785499993223672  0.8343490006779154  0.10509799973170578  1.0000
  Li  Li6       1.0  0.16565099932208466  0.42145000067763294  0.39490200026829425  1.0000
  Li  Li7       1.0  0.42145000067763294  0.16565099932208466  0.8949020002682943  1.0000
  Li  Li8       1.0  0.8343490006779155  0.5785499993223673  0.6050979997317059  1.0000
  Li  Li9       1.0  0.16792199995011814  0.9675929990037425  0.3978750004797999  1.0000
  Li  Li10      1.0  0.03240700099625772  0.8320780000498816  0.10212499952020017  1.0000
  Li  Li11      1.0  0.8320780000498816  0.03240700099625777  0.6021249995202002  1.0000
  Li  Li12      1.0  0.5836659995713601  0.2954559997957449  0.0857050001638701  1.0000
  Zr  Zr1       1.0  0.9373319994775412  0.6957340000662217  0.8648360004791109  1.0000
  Zr  Zr2       1.0  0.3042659999337786  0.06266800052245879  0.6351639995208891  1.0000
  Zr  Zr3       1.0  0.0626680005224588  0.30426599993377856  0.13516399952088912  1.0000
  Zr  Zr4       1.0  0.6957340000662218  0.9373319994775414  0.36483600047911086  1.0000
  O   O1        1.0  0.3581539999035014  0.1351839994943291  0.2572610003831509  1.0000
  O   O2        1.0  0.864816000505671  0.6418460000964986  0.24273899961684908  1.0000
  O   O3        1.0  0.6418460000964988  0.8648160005056709  0.7427389996168491  1.0000
  O   O4        1.0  0.13518399949432902  0.3581539999035014  0.7572610003831509  1.0000
  O   O5        1.0  0.8414730005662419  0.15852699943375842  0.25  1.0000
  O   O6        1.0  0.15852699943375842  0.8414730005662417  0.75  1.0000
  O   O7        1.0  0.49871099935036295  0.23595100003671662  0.502526999936125  1.0000
  O   O8        1.0  0.7640489999632836  0.501289000649637  0.997473000063875  1.0000
  O   O9        1.0  0.5012890006496371  0.7640489999632836  0.4974730000638749  1.0000
  O   O10       1.0  0.23595100003671662  0.498710999350363  0.0025269999361251087  1.0000
  O   O11       1.0  0.2440749992562  0.9982420003002492  0.022542000201368304  1.0000
  O   O12       1.0  0.001757999699750861  0.7559250007438001  0.4774579997986317  1.0000
  O   O13       1.0  0.7559250007438001  0.0017579996997508297  0.9774579997986318  1.0000
  O   O14       1.0  0.9982420003002492  0.24407499925620002  0.5225420002013683  1.0000
