data_image0
_chemical_formula_structural       Zr4O8
_chemical_formula_sum              "Zr4 O8"
_cell_length_a       5.131957
_cell_length_b       5.15922
_cell_length_c       5.349389
_cell_angle_alpha    90.0
_cell_angle_beta     90.0
_cell_angle_gamma    90.0

_space_group_name_H-M_alt    "P 1"
_space_group_IT_number       1

loop_
  _space_group_symop_operation_xyz
  'x, y, z'

loop_
  _atom_site_type_symbol
  _atom_site_label
  _atom_site_symmetry_multiplicity
  _atom_site_fract_x
  _atom_site_fract_y
  _atom_site_fract_z
  _atom_site_occupancy
  Zr  Zr1       1.0  0.7336720007591646  0.7485440008373359  0.030421999596589436  1.0000
  Zr  Zr2       1.0  0.26632799924083544  0.7485440008373359  0.5304219995965894  1.0000
  Zr  Zr3       1.0  0.26632799924083544  0.24854400083733583  0.9695780004034105  1.0000
  Zr  Zr4       1.0  0.7336720007591646  0.24854400083733583  0.46957800040341047  1.0000
  O   O1        1.0  0.46355000051637224  0.5015639999844937  0.22901399954275148  1.0000
  O   O2        1.0  0.9330800004754523  0.6058919991781703  0.3639599999177476  1.0000
  O   O3        1.0  0.06691999952454786  0.6058919991781703  0.8639599999177475  1.0000
  O   O4        1.0  0.5364499994836278  0.5015639999844937  0.7290139995427514  1.0000
  O   O5        1.0  0.9330800004754523  0.10589199917817033  0.13604000008225237  1.0000
  O   O6        1.0  0.5364499994836278  0.0015639999844937798  0.7709860004572484  1.0000
  O   O7        1.0  0.06691999952454786  0.10589199917817033  0.6360400000822523  1.0000
  O   O8        1.0  0.46355000051637224  0.0015639999844937798  0.27098600045724847  1.0000
