data_image0
_chemical_formula_structural       Zr12O4
_chemical_formula_sum              "Zr12 O4"
_cell_length_a       10.980660413959853
_cell_length_b       10.980660413959853
_cell_length_c       10.980660855003991
_cell_angle_alpha    29.910174096768877
_cell_angle_beta     29.910174096768877
_cell_angle_gamma    29.91017456629021

_space_group_name_H-M_alt    "P 1"
_space_group_IT_number       1

loop_
  _space_group_symop_operation_xyz
  'x, y, z'

loop_
  _atom_site_type_symbol
  _atom_site_label
  _atom_site_symmetry_multiplicity
  _atom_site_fract_x
  _atom_site_fract_y
  _atom_site_fract_z
  _atom_site_occupancy
  Zr  Zr1       1.0  0.8389520003783054  0.1610479996216946  0.5  1.0000
  Zr  Zr2       1.0  0.500000000398544  0.8389519990123653  0.1610480001666193  1.0000
  Zr  Zr3       1.0  0.0771949997870955  0.7568370000207129  0.41507199994061095  1.0000
  Zr  Zr4       1.0  0.3410800003105493  0.6589199996894507  0.0  1.0000
  Zr  Zr5       1.0  0.6589200004884157  0.9999999990344807  0.34108000014022416  1.0000
  Zr  Zr6       1.0  0.9228049997655281  0.5849279991490173  0.24316300087083317  1.0000
  Zr  Zr7       1.0  9.6551946124592e-10  0.3410799995115842  0.6589199998597759  1.0000
  Zr  Zr8       1.0  0.5849279994108558  0.24316299979374897  0.9228050003928339  1.0000
  Zr  Zr9       1.0  0.41507200085098267  0.07719500023447196  0.7568369991291669  1.0000
  Zr  Zr10      1.0  0.16104800098763494  0.4999999996014558  0.8389519998333809  1.0000
  Zr  Zr11      1.0  0.24316299997928717  0.9228050002129048  0.584928000059389  1.0000
  Zr  Zr12      1.0  0.7568370002062511  0.4150720005891441  0.0771949996071662  1.0000
  O   O1        1.0  0.2915280001140146  0.29152800011401453  0.2915279997706923  1.0000
  O   O2        1.0  0.12519800031617614  0.12519800031617614  0.12519799957891517  1.0000
  O   O3        1.0  0.7084719998859856  0.7084719998859854  0.7084720002293078  1.0000
  O   O4        1.0  0.8748019996838238  0.8748019996838238  0.8748020004210848  1.0000
