data_image0
_chemical_formula_structural       O24
_chemical_formula_sum              "O24"
_cell_length_a       6.85982935
_cell_length_b       7.12835549
_cell_length_c       7.98357277
_cell_angle_alpha    90.0
_cell_angle_beta     90.0
_cell_angle_gamma    90.0

_space_group_name_H-M_alt    "P 1"
_space_group_IT_number       1

loop_
  _space_group_symop_operation_xyz
  'x, y, z'

loop_
  _atom_site_type_symbol
  _atom_site_label
  _atom_site_symmetry_multiplicity
  _atom_site_fract_x
  _atom_site_fract_y
  _atom_site_fract_z
  _atom_site_occupancy
  O   O1        1.0  0.7573067994759957  0.3629796302428795  0.0031798795766472356  1.0000
  O   O2        1.0  0.44624609940187504  0.938677880106678  0.6985405795956688  1.0000
  O   O3        1.0  0.2573068002048768  0.13702037045854457  0.9968201204233526  1.0000
  O   O4        1.0  0.7426931997951232  0.6370203697571206  0.5031798802029332  1.0000
  O   O5        1.0  0.2573068002048768  0.3629796302428795  0.4968201197970667  1.0000
  O   O6        1.0  0.1556169294502931  0.18728096990572507  0.12393399027037363  1.0000
  O   O7        1.0  0.6556169301791742  0.18728096990572507  0.3760660103559123  1.0000
  O   O8        1.0  0.05375389986924383  0.061322119893321994  0.19854058022195492  1.0000
  O   O9        1.0  0.9462461001307562  0.5613221205947461  0.30145942040433105  1.0000
  O   O10       1.0  0.05375389986924383  0.43867787940525393  0.6985405795956688  1.0000
  O   O11       1.0  0.5537539005981249  0.061322119893321994  0.30145942040433105  1.0000
  O   O12       1.0  0.7573067994759957  0.13702037045854457  0.5031798802029332  1.0000
  O   O13       1.0  0.2426932005240043  0.6370203697571206  0.9968201204233526  1.0000
  O   O14       1.0  0.9462461001307562  0.938677880106678  0.8014594197780449  1.0000
  O   O15       1.0  0.44624609940187504  0.5613221205947461  0.19854058022195492  1.0000
  O   O16       1.0  0.6556169301791742  0.3127190293928509  0.8760660097296262  1.0000
  O   O17       1.0  0.3443830698208258  0.812719030094275  0.6239339896440875  1.0000
  O   O18       1.0  0.7426931997951232  0.8629796295414555  0.0031798795766472356  1.0000
  O   O19       1.0  0.844383070549707  0.6872809706071492  0.3760660103559123  1.0000
  O   O20       1.0  0.1556169294502931  0.3127190293928509  0.6239339896440875  1.0000
  O   O21       1.0  0.2426932005240043  0.8629796295414555  0.4968201197970667  1.0000
  O   O22       1.0  0.5537539005981249  0.43867787940525393  0.8014594197780449  1.0000
  O   O23       1.0  0.844383070549707  0.812719030094275  0.8760660097296262  1.0000
  O   O24       1.0  0.3443830698208258  0.6872809706071492  0.12393399027037363  1.0000
