data_image0
_chemical_formula_structural       O2
_chemical_formula_sum              "O2"
_cell_length_a       4.205276774233606
_cell_length_b       4.205276289504988
_cell_length_c       4.2052759832300115
_cell_angle_alpha    46.891222656304706
_cell_angle_beta     46.89122966531473
_cell_angle_gamma    46.89121830203672

_space_group_name_H-M_alt    "P 1"
_space_group_IT_number       1

loop_
  _space_group_symop_operation_xyz
  'x, y, z'

loop_
  _atom_site_type_symbol
  _atom_site_label
  _atom_site_symmetry_multiplicity
  _atom_site_fract_x
  _atom_site_fract_y
  _atom_site_fract_z
  _atom_site_occupancy
  O   O1        1.0  0.9449543806363603  0.9449543817073803  0.9449543780553942  1.0000
  O   O2        1.0  0.055045619363639685  0.055045618292619586  0.05504562194460595  1.0000
