data_image0
_chemical_formula_structural       La2O6
_chemical_formula_sum              "La2 O6"
_cell_length_a       4.661293237652858
_cell_length_b       8.808056344184958
_cell_length_c       4.88003253645369
_cell_angle_alpha    59.94924194362098
_cell_angle_beta     116.6935276294855
_cell_angle_gamma    120.43262243452678

_space_group_name_H-M_alt    "P 1"
_space_group_IT_number       1

loop_
  _space_group_symop_operation_xyz
  'x, y, z'

loop_
  _atom_site_type_symbol
  _atom_site_label
  _atom_site_symmetry_multiplicity
  _atom_site_fract_x
  _atom_site_fract_y
  _atom_site_fract_z
  _atom_site_occupancy
  La  La1       1.0  0.38042139069287517  0.7370713306418242  0.28111195975942316  1.0000
  La  La2       1.0  0.6308628611317976  0.26488697071305267  0.7191397901973156  1.0000
  O   O1        1.0  0.34972552998824424  0.9582475094985449  0.7665550799738533  1.0000
  O   O2        1.0  0.2910631907523776  0.3918011593503194  0.8001307907192206  1.0000
  O   O3        1.0  0.9041435406696978  0.6551016705473424  0.4974544005772546  1.0000
  O   O4        1.0  0.7210985899101359  0.6109654196043833  0.19879789081193922  1.0000
  O   O5        1.0  0.6439104506524053  0.04414134941903544  0.2329947917709889  1.0000
  O   O6        1.0  0.10753944912282257  0.34730058935369085  0.501819300669947  1.0000
