data_image0
_chemical_formula_structural       LaZr9O20
_chemical_formula_sum              "La1 Zr9 O20"
_cell_length_a       18.40659241088653
_cell_length_b       8.226822369026985
_cell_length_c       6.493916110093007
_cell_angle_alpha    59.387343606021766
_cell_angle_beta     55.40648955529732
_cell_angle_gamma    26.604186994352013

_space_group_name_H-M_alt    "P 1"
_space_group_IT_number       1

loop_
  _space_group_symop_operation_xyz
  'x, y, z'

loop_
  _atom_site_type_symbol
  _atom_site_label
  _atom_site_symmetry_multiplicity
  _atom_site_fract_x
  _atom_site_fract_y
  _atom_site_fract_z
  _atom_site_occupancy
  La  La1       1.0  0.7004777701845476  0.2500552998843421  0.74779557935014  1.0000
  Zr  Zr1       1.0  0.10390458958676692  0.24279651113079387  0.741333070579826  1.0000
  Zr  Zr2       1.0  0.1009142900489704  0.7539739702195278  0.2472885602132282  1.0000
  Zr  Zr3       1.0  0.2989605599603531  0.2552358293230332  0.742368550356801  1.0000
  Zr  Zr4       1.0  0.29834143923814166  0.7534987212484892  0.2531799900165342  1.0000
  Zr  Zr5       1.0  0.4918330504677939  0.25598721889416143  0.7651366702490855  1.0000
  Zr  Zr6       1.0  0.49472815937912  0.7554854208462667  0.2510557303549006  1.0000
  Zr  Zr7       1.0  0.70422045026706  0.7401758494384246  0.24530773925604613  1.0000
  Zr  Zr8       1.0  0.898730840277643  0.2522999296312521  0.7596695197570338  1.0000
  Zr  Zr9       1.0  0.9028348097785533  0.7443535702414977  0.2458064098864123  1.0000
  O   O1        1.0  0.1407076101453617  0.24659290983544427  0.05659012958420157  1.0000
  O   O2        1.0  0.036390719526598087  0.25327131109147577  0.5518086106402768  1.0000
  O   O3        1.0  0.3404316502648917  0.2580836488992164  0.06255240973372482  1.0000
  O   O4        1.0  0.24194296979965502  0.23947194097037605  0.55787217898866  1.0000
  O   O5        1.0  0.0654944703578912  0.7414112698894864  0.9382067198623729  1.0000
  O   O6        1.0  0.17398170052546716  0.7219758991018126  0.4409068296593464  1.0000
  O   O7        1.0  0.5321475699021293  0.2549026196694489  0.06334578983012956  1.0000
  O   O8        1.0  0.4394927899726752  0.24851798011721524  0.562457240394869  1.0000
  O   O9        1.0  0.2544064693950056  0.7634571208670753  0.9470808398289801  1.0000
  O   O10       1.0  0.35057035949085436  0.7672760707882542  0.45226240062086487  1.0000
  O   O11       1.0  0.74479534985493  0.24895515983389707  0.05500329026215506  1.0000
  O   O12       1.0  0.6326408607564191  0.2508551986714989  0.5325646889881028  1.0000
  O   O13       1.0  0.4415329701398257  0.7942984603213273  0.9704341093865693  1.0000
  O   O14       1.0  0.5543937194339486  0.7685691112408481  0.4395600397391759  1.0000
  O   O15       1.0  0.9368259201268524  0.2430003601272375  0.0485353394412728  1.0000
  O   O16       1.0  0.8539263698363594  0.25492571023329064  0.5232658702623965  1.0000
  O   O17       1.0  0.66205990991977  0.751031170984951  0.9440223392612815  1.0000
  O   O18       1.0  0.756533219912057  0.760800719865486  0.44693039037706606  1.0000
  O   O19       1.0  0.8749123202701233  0.7006183689447413  0.9702895598041374  1.0000
  O   O20       1.0  0.9718671204229081  0.7281226696099489  0.4373693900058934  1.0000
