data_image0
_chemical_formula_structural       LaZr9O20
_chemical_formula_sum              "La1 Zr9 O20"
_cell_length_a       7.372371366983739
_cell_length_b       18.422281151482192
_cell_length_c       9.746071042771403
_cell_angle_alpha    19.108725712514268
_cell_angle_beta     55.50265926929641
_cell_angle_gamma    60.013985119494166

_space_group_name_H-M_alt    "P 1"
_space_group_IT_number       1

loop_
  _space_group_symop_operation_xyz
  'x, y, z'

loop_
  _atom_site_type_symbol
  _atom_site_label
  _atom_site_symmetry_multiplicity
  _atom_site_fract_x
  _atom_site_fract_y
  _atom_site_fract_z
  _atom_site_occupancy
  La  La1       1.0  0.49999999931984507  0.7999999998332306  5.892785779949855e-10  1.0000
  Zr  Zr1       1.0  0.9974441602770557  0.001894300332788345  0.9990196594686087  1.0000
  Zr  Zr2       1.0  0.002255989649571376  0.20064330047512124  0.9980583397974728  1.0000
  Zr  Zr3       1.0  0.9977440106357897  0.39935669919011213  0.0019416606781077494  1.0000
  Zr  Zr4       1.0  0.4994231894702472  0.0015325601068098312  0.9998906802582106  1.0000
  Zr  Zr5       1.0  0.0025558400083052855  0.5981056993324451  0.0009803410069715779  1.0000
  Zr  Zr6       1.0  0.49896776997279807  0.19966350083008774  0.0003871482437309756  1.0000
  Zr  Zr7       1.0  0.9999999994292781  0.8000000006695331  0.9999999990488395  1.0000
  Zr  Zr8       1.0  0.5010322305314288  0.4003365005077508  0.999612849150971  1.0000
  Zr  Zr9       1.0  0.500576809169443  0.5984674395596514  0.00010932092034648087  1.0000
  O   O1        1.0  0.12246527957778774  0.15533317981697017  0.24110332101028947  1.0000
  O   O2        1.0  0.12080065001413641  0.35732197940581106  0.23976225121104663  1.0000
  O   O3        1.0  0.3693257800516929  0.071191970713289  0.72419189855701  1.0000
  O   O4        1.0  0.1242444399431908  0.5374856992948172  0.2745164314591989  1.0000
  O   O5        1.0  0.6376862995483981  0.17231699986041846  0.19887702050781467  1.0000
  O   O6        1.0  0.3725014597883471  0.24307947965099538  0.7615401709716457  1.0000
  O   O7        1.0  0.6274985404970138  0.35692052001423796  0.2384598295039349  1.0000
  O   O8        1.0  0.09954842043750463  0.7518924008109937  0.2564397185524691  1.0000
  O   O9        1.0  0.8757555603421702  0.06251430037041626  0.7254835690163816  1.0000
  O   O10       1.0  0.36231370073696284  0.42768299980481495  0.8011229799677659  1.0000
  O   O11       1.0  0.12576045066496597  0.943614069916638  0.2590600493782038  1.0000
  O   O12       1.0  0.6306742204525337  0.5288080306245496  0.27580809883769175  1.0000
  O   O13       1.0  0.8791993502712244  0.2426780202594223  0.7602377492645341  1.0000
  O   O14       1.0  0.37018326982789895  0.6499337807549168  0.7557343482469941  1.0000
  O   O15       1.0  0.6331082399559432  0.747208440697705  0.2684095684072124  1.0000
  O   O16       1.0  0.8775347207075733  0.44466681984826334  0.7588966794652908  1.0000
  O   O17       1.0  0.6298167306763278  0.9500662205829218  0.24426564914770824  1.0000
  O   O18       1.0  0.36689176054828365  0.8527915606401338  0.7315904289874895  1.0000
  O   O19       1.0  0.8742395496203952  0.6563859297485954  0.7409399510973768  1.0000
  O   O20       1.0  0.9004515800667222  0.8481076005268449  0.7435602788422332  1.0000
