data_image0
_chemical_formula_structural       Zr27O49
_chemical_formula_sum              "Zr27 O49"
_cell_length_a       3.632119158647231
_cell_length_b       3.632118950597653
_cell_length_c       98.3729250473401
_cell_angle_alpha    60.10476584195423
_cell_angle_beta     60.1047680809323
_cell_angle_gamma    60.002809813974494

_space_group_name_H-M_alt    "P 1"
_space_group_IT_number       1

loop_
  _space_group_symop_operation_xyz
  'x, y, z'

loop_
  _atom_site_type_symbol
  _atom_site_label
  _atom_site_symmetry_multiplicity
  _atom_site_fract_x
  _atom_site_fract_y
  _atom_site_fract_z
  _atom_site_occupancy
  Zr  Zr1       1.0  0.9979296991583265  0.9979297012326755  0.00023025995072377506  1.0000
  Zr  Zr2       1.0  0.007160550207364505  0.0071605497496118695  0.03623815997845286  1.0000
  Zr  Zr3       1.0  0.003928630265498965  0.003928631165662684  0.0736330699434676  1.0000
  Zr  Zr4       1.0  0.9995267000238686  0.9995267009937894  0.11116187994188426  1.0000
  Zr  Zr5       1.0  0.009246769392096411  0.009246770711009095  0.14711984000212164  1.0000
  Zr  Zr6       1.0  0.9983158391388621  0.9983158414201302  0.185371880033288  1.0000
  Zr  Zr7       1.0  0.008104699317790983  0.008104700283848775  0.22131689996114118  1.0000
  Zr  Zr8       1.0  0.003128519492225427  0.0031285213209152857  0.2589081399523704  1.0000
  Zr  Zr9       1.0  0.999419680688647  0.9994196805803129  0.29637407001596605  1.0000
  Zr  Zr10      1.0  0.006505609898757416  0.006505608398439769  0.33260970008001006  1.0000
  Zr  Zr11      1.0  0.001863659852277255  0.0018636610319055554  0.370164529988646  1.0000
  Zr  Zr12      1.0  0.9980109409824409  0.9980109392267701  0.40762836998961943  1.0000
  Zr  Zr13      1.0  0.005208239606430708  0.005208239334118011  0.4438614999745744  1.0000
  Zr  Zr14      1.0  0.0003565588613371474  0.00035656164031479617  0.4814421799686504  1.0000
  Zr  Zr15      1.0  0.0013682407814851342  0.0013682400147014984  0.5183665200289221  1.0000
  Zr  Zr16      1.0  0.0013420705534527258  0.0013420708282746014  0.5554082799404887  1.0000
  Zr  Zr17      1.0  0.001184588882994923  0.001184600272255395  0.5924576899993949  1.0000
  Zr  Zr18      1.0  0.0008442988438223998  0.0008442987293895254  0.6295330500669318  1.0000
  Zr  Zr19      1.0  0.0005678991751266353  0.0005678985085579535  0.6666034500173325  1.0000
  Zr  Zr20      1.0  0.0007362792571168684  0.0007362791908687536  0.7406603900490676  1.0000
  Zr  Zr21      1.0  0.00045646988361516176  0.0004564709412295359  0.7036541699376577  1.0000
  Zr  Zr22      1.0  0.001118470963068117  0.00111847072577541  0.7776513400181828  1.0000
  Zr  Zr23      1.0  0.0012343795114812682  0.0012343783496410069  0.8146791400863483  1.0000
  Zr  Zr24      1.0  0.0010797081356121938  0.0010797112338244055  0.8517328699973634  1.0000
  Zr  Zr25      1.0  0.001046749635607044  0.001046739435943942  0.888775950001803  1.0000
  Zr  Zr26      1.0  0.00033777127255752327  0.00033776980492123836  0.9258894300123595  1.0000
  Zr  Zr27      1.0  0.0011073598084065527  0.0011073592789793993  0.9628424600111466  1.0000
  O   O1        1.0  0.25127122007264  0.251271220784142  0.046154019987507976  1.0000
  O   O2        1.0  0.7575460898896428  0.7575460908481191  0.026934589963334917  1.0000
  O   O3        1.0  0.24697885889327692  0.24697885886844215  0.08366778003642016  1.0000
  O   O4        1.0  0.7476080097489636  0.7476080106653563  0.06507923997138403  1.0000
  O   O5        1.0  0.732446340899123  0.7324463411746466  0.10380095994857085  1.0000
  O   O6        1.0  0.2535756395563942  0.25357564092466267  0.15701283001856792  1.0000
  O   O7        1.0  0.7607670615809511  0.7607670595382198  0.13769389995825454  1.0000
  O   O8        1.0  0.7301870698065823  0.7301870691596768  0.17812845002569297  1.0000
  O   O9        1.0  0.25322152002521664  0.25322152142717547  0.23112302998032497  1.0000
  O   O10       1.0  0.7595998414361533  0.7595998390800479  0.21189529003306762  1.0000
  O   O11       1.0  0.24775266150419836  0.24775265854868075  0.2687694599976386  1.0000
  O   O12       1.0  0.7486733904354612  0.748673390147423  0.2501480999865524  1.0000
  O   O13       1.0  0.7330444295405383  0.7330444314627427  0.2889200099320695  1.0000
  O   O14       1.0  0.2538270304719612  0.253827028927128  0.3421677100316119  1.0000
  O   O15       1.0  0.760219189179224  0.7602191894757795  0.3229399100341686  1.0000
  O   O16       1.0  0.24806972015026174  0.24806972029204655  0.37984342000048593  1.0000
  O   O17       1.0  0.749277708130874  0.7492777110538534  0.36118977006501224  1.0000
  O   O18       1.0  0.7332155904638525  0.733215591363429  0.40001234992291035  1.0000
  O   O19       1.0  0.2553278205154887  0.25532781903668267  0.45311435000606226  1.0000
  O   O20       1.0  0.24866804872664588  0.24866805027504826  0.4908901999912697  1.0000
  O   O21       1.0  0.760407229397105  0.76040723156113  0.43403030994445024  1.0000
  O   O22       1.0  0.7493895286036394  0.7493895303818122  0.4722916399883755  1.0000
  O   O23       1.0  0.2494043092969095  0.24940430832462193  0.527843170050843  1.0000
  O   O24       1.0  0.24937312052719285  0.24937312102676001  0.5648844399542969  1.0000
  O   O25       1.0  0.7498965484286527  0.7498965514214325  0.509268879963804  1.0000
  O   O26       1.0  0.7497125210598566  0.749712521417738  0.5463270699913789  1.0000
  O   O27       1.0  0.2494213202992485  0.24942131884880347  0.6019150999675841  1.0000
  O   O28       1.0  0.7498723391029447  0.7498723384381979  0.583346590023889  1.0000
  O   O29       1.0  0.24945600047849348  0.2494559984591502  0.6389490200395535  1.0000
  O   O30       1.0  0.7498223589800924  0.7498223590201318  0.6203880200498568  1.0000
  O   O31       1.0  0.24945735026747975  0.2494573504458069  0.6759843199775081  1.0000
  O   O32       1.0  0.7497924093093038  0.7497924114188057  0.6574294999557275  1.0000
  O   O33       1.0  0.24973972099812305  0.24973972160605143  0.7129911799445653  1.0000
  O   O34       1.0  0.7498318308131428  0.7498318309813614  0.6944612499331639  1.0000
  O   O35       1.0  0.2500957189744348  0.25009571930455016  0.7499900699832615  1.0000
  O   O36       1.0  0.7501862687626409  0.7501862709856701  0.7314607000032349  1.0000
  O   O37       1.0  0.2501459609801515  0.2501459584992406  0.7870222699988703  1.0000
  O   O38       1.0  0.7506122917735507  0.7506122885302129  0.7684505399497475  1.0000
  O   O39       1.0  0.2497120084774828  0.24971201055635914  0.824108849983623  1.0000
  O   O40       1.0  0.7505752706602448  0.7505752711514764  0.8054935599222861  1.0000
  O   O41       1.0  0.2491286105666741  0.2491286105835169  0.8612072299768111  1.0000
  O   O42       1.0  0.2486113488670329  0.24861135027342113  0.8983039700501398  1.0000
  O   O43       1.0  0.7499152097537918  0.7499152109608805  0.842600810013436  1.0000
  O   O44       1.0  0.7495200310479958  0.7495200296748348  0.8796832299646972  1.0000
  O   O45       1.0  0.2466056887798492  0.2466056912379019  0.9355649699609965  1.0000
  O   O46       1.0  0.7487400299046215  0.7487400313584296  0.9168093199374289  1.0000
  O   O47       1.0  0.24692534912173897  0.2469253492355444  0.9725664900206838  1.0000
  O   O48       1.0  0.7484274605953686  0.7484274612769852  0.9538808699907927  1.0000
  O   O49       1.0  0.7328145207054259  0.7328145204583011  0.992650019996656  1.0000
