data_image0
_chemical_formula_structural       O2
_chemical_formula_sum              "O2"
_cell_length_a       2.429382914320523
_cell_length_b       2.4295624720618836
_cell_length_c       4.133699564820154
_cell_angle_alpha    102.74521719338705
_cell_angle_beta     102.78106909148563
_cell_angle_gamma    104.36303457418536

_space_group_name_H-M_alt    "P 1"
_space_group_IT_number       1

loop_
  _space_group_symop_operation_xyz
  'x, y, z'

loop_
  _atom_site_type_symbol
  _atom_site_label
  _atom_site_symmetry_multiplicity
  _atom_site_fract_x
  _atom_site_fract_y
  _atom_site_fract_z
  _atom_site_occupancy
  O   O1        1.0  0.9025409822444983  0.9198874217149032  0.8409769513452844  1.0000
  O   O2        1.0  0.062116018630718334  0.0786665796679687  0.15965105055361736  1.0000
