data_image0
_chemical_formula_structural       Zr19O40
_chemical_formula_sum              "Zr19 O40"
_cell_length_a       18.264216348693413
_cell_length_b       8.165203405047802
_cell_length_c       11.166421328429655
_cell_angle_alpha    72.92211887854957
_cell_angle_beta     70.77883306409224
_cell_angle_gamma    26.57409670804578

_space_group_name_H-M_alt    "P 1"
_space_group_IT_number       1

loop_
  _space_group_symop_operation_xyz
  'x, y, z'

loop_
  _atom_site_type_symbol
  _atom_site_label
  _atom_site_symmetry_multiplicity
  _atom_site_fract_x
  _atom_site_fract_y
  _atom_site_fract_z
  _atom_site_occupancy
  Zr  Zr1       1.0  0.1753434500103701  0.248473039582913  0.37625792981397854  1.0000
  Zr  Zr2       1.0  0.07354024986847608  0.2456362910374528  0.8781992399189229  1.0000
  Zr  Zr3       1.0  0.02717065946655836  0.745195730882078  0.6256345405850104  1.0000
  Zr  Zr4       1.0  0.12020676956669102  0.7602686105325576  0.12138538024520379  1.0000
  Zr  Zr5       1.0  0.3766174699274132  0.24697139061669598  0.3734117194243907  1.0000
  Zr  Zr6       1.0  0.2741312305673558  0.25100872901156157  0.8743534600780787  1.0000
  Zr  Zr7       1.0  0.22400805032929416  0.7526302095889297  0.6244774996713747  1.0000
  Zr  Zr8       1.0  0.3308142000325382  0.7407132100913729  0.12104464952601336  1.0000
  Zr  Zr9       1.0  0.5814062201611585  0.2374559693937211  0.37217991969101694  1.0000
  Zr  Zr10      1.0  0.4784627402792817  0.24819849866702637  0.8771163100368752  1.0000
  Zr  Zr11      1.0  0.5236256601515141  0.7569802202272369  0.12785140966984093  1.0000
  Zr  Zr12      1.0  0.4243069300537281  0.750875449598803  0.6252490604244342  1.0000
  Zr  Zr13      1.0  0.7668236592999741  0.27069334105272375  0.3722954401442846  1.0000
  Zr  Zr14      1.0  0.6733757606205312  0.2506215986717283  0.87590386026068  1.0000
  Zr  Zr15      1.0  0.6243825906464446  0.748886378960472  0.6259252102023846  1.0000
  Zr  Zr16      1.0  0.8745357800016603  0.25527146966026104  0.8753865597970212  1.0000
  Zr  Zr17      1.0  0.9744054698232384  0.2514714200649321  0.3746313701927248  1.0000
  Zr  Zr18      1.0  0.8247927597287255  0.748639600687349  0.6237091996949611  1.0000
  Zr  Zr19      1.0  0.9264010900914103  0.739474640431639  0.13004850984195115  1.0000
  O   O1        1.0  0.05424609944187159  0.2508160207379799  0.47532115999590274  1.0000
  O   O2        1.0  0.11222391991629704  0.23919640071697604  0.22485657963203595  1.0000
  O   O3        1.0  0.0036023700084568924  0.25366462992448113  0.7263677496306769  1.0000
  O   O4        1.0  0.04770691968621099  0.7367822009589694  0.028441240162405408  1.0000
  O   O5        1.0  0.25582933996232265  0.2490100595759529  0.47385645046340413  1.0000
  O   O6        1.0  0.298694959725864  0.25978078059589926  0.22222611005324866  1.0000
  O   O7        1.0  0.20834842035183884  0.2466370396981633  0.7240946600617578  1.0000
  O   O8        1.0  0.1565588597081594  0.24420857078952796  0.9735477200717589  1.0000
  O   O9        1.0  0.14423718957412593  0.7516237513656853  0.526226359694666  1.0000
  O   O10       1.0  0.24435314975488326  0.7502107205531792  0.027136630399531757  1.0000
  O   O11       1.0  0.19469629054587057  0.749824639312522  0.2759549897942322  1.0000
  O   O12       1.0  0.09351141031028373  0.7524022196100737  0.7773797999087261  1.0000
  O   O13       1.0  0.3544182902613182  0.25614752950405345  0.9693995197767983  1.0000
  O   O14       1.0  0.40343437035184004  0.2513344598008164  0.7196754199312578  1.0000
  O   O15       1.0  0.45232729995169396  0.25903968083725226  0.47231592015239693  1.0000
  O   O16       1.0  0.49205366001031114  0.27639449021284535  0.23653120027370886  1.0000
  O   O17       1.0  0.3974879103499764  0.7447480495471107  0.27758652004360596  1.0000
  O   O18       1.0  0.34199862995846264  0.7573235904594469  0.5270998196496506  1.0000
  O   O19       1.0  0.44152822006892134  0.7625109795766325  0.02609417987657711  1.0000
  O   O20       1.0  0.2961548698523639  0.7475929409469814  0.7756714299770228  1.0000
  O   O21       1.0  0.7055827298505954  0.25036719994301626  0.2221638100639522  1.0000
  O   O22       1.0  0.539791950616769  0.2905417888314332  0.974278780170484  1.0000
  O   O23       1.0  0.607058770239894  0.24667363002620762  0.7252102399758743  1.0000
  O   O24       1.0  0.6557794396189616  0.24801716080515313  0.4751584497978933  1.0000
  O   O25       1.0  0.6422183894571801  0.7486387012601617  0.011043450364818935  1.0000
  O   O26       1.0  0.5825686301141544  0.7582580497888002  0.27560701982392427  1.0000
  O   O27       1.0  0.5455077399461646  0.7504493397811279  0.5238227100032945  1.0000
  O   O28       1.0  0.4955261899504141  0.7491068304515021  0.7754537698862606  1.0000
  O   O29       1.0  0.9127569604039633  0.22461092959191342  0.23704881963548818  1.0000
  O   O30       1.0  0.8057015497591468  0.25029492059802005  0.7210625904344277  1.0000
  O   O31       1.0  0.7550593495532043  0.2520771510299464  0.9712877300900582  1.0000
  O   O32       1.0  0.8579421999403388  0.2419118007924207  0.4730308294948047  1.0000
  O   O33       1.0  0.8510676902638764  0.7549677188121815  0.014313870232418625  1.0000
  O   O34       1.0  0.6943368905487896  0.7519786488329208  0.7724443902870436  1.0000
  O   O35       1.0  0.8064307805841153  0.7426858787417867  0.2778129798942841  1.0000
  O   O36       1.0  0.7441376402566001  0.7495361195610415  0.5247607495590634  1.0000
  O   O37       1.0  0.9696914202618633  0.21051886965933436  0.9745940199480095  1.0000
  O   O38       1.0  0.9906673197569366  0.7555943208143763  0.281141120058646  1.0000
  O   O39       1.0  0.8969296294230165  0.7477452910061941  0.7785226905649231  1.0000
  O   O40       1.0  0.9484818000395209  0.7373111101580443  0.5313972096940863  1.0000
