data_image0
_chemical_formula_structural       La4Zr4O14
_chemical_formula_sum              "La4 Zr4 O14"
_cell_length_a       3.700199
_cell_length_b       7.710531
_cell_length_c       11.153631
_cell_angle_alpha    90.0
_cell_angle_beta     90.0
_cell_angle_gamma    90.0

_space_group_name_H-M_alt    "P 1"
_space_group_IT_number       1

loop_
  _space_group_symop_operation_xyz
  'x, y, z'

loop_
  _atom_site_type_symbol
  _atom_site_label
  _atom_site_symmetry_multiplicity
  _atom_site_fract_x
  _atom_site_fract_y
  _atom_site_fract_z
  _atom_site_occupancy
  La  La1       1.0  0.5  0.0  0.5  1.0000
  La  La2       1.0  0.0  0.7500000000000001  0.7764509996789385  1.0000
  La  La3       1.0  0.0  0.25  0.22354900032106137  1.0000
  La  La4       1.0  0.5  0.5  0.5  1.0000
  Zr  Zr1       1.0  0.0  0.7500000000000001  0.2363060002612602  1.0000
  Zr  Zr2       1.0  0.0  0.25  0.7636939997387397  1.0000
  Zr  Zr3       1.0  0.5  0.0  0.0  1.0000
  Zr  Zr4       1.0  0.5  0.5  0.0  1.0000
  O   O1        1.0  0.5  0.7500000000000001  0.36674799982176204  1.0000
  O   O2        1.0  0.0  0.9645269995023691  0.634310999709422  1.0000
  O   O3        1.0  0.5  0.7500000000000001  0.902932000350379  1.0000
  O   O4        1.0  0.5  0.25  0.8661529998616594  1.0000
  O   O5        1.0  0.0  0.025665000244470843  0.8864500000044828  1.0000
  O   O6        1.0  0.0  0.9743349997555293  0.11354999999551715  1.0000
  O   O7        1.0  0.0  0.5256650002444708  0.11354999999551715  1.0000
  O   O8        1.0  0.5  0.7500000000000001  0.13384700013834058  1.0000
  O   O9        1.0  0.5  0.25  0.09706799964962082  1.0000
  O   O10       1.0  0.0  0.0354730004976311  0.365689000290578  1.0000
  O   O11       1.0  0.0  0.464526999502369  0.365689000290578  1.0000
  O   O12       1.0  0.0  0.5354730004976311  0.634310999709422  1.0000
  O   O13       1.0  0.5  0.25  0.6332520001782379  1.0000
  O   O14       1.0  0.0  0.47433499975552923  0.8864500000044828  1.0000
