data_image0
_chemical_formula_structural       O2
_chemical_formula_sum              "O2"
_cell_length_a       3.3089571547073215
_cell_length_b       3.308957325942879
_cell_length_c       4.194710529334975
_cell_angle_alpha    94.55839390123887
_cell_angle_beta     111.73317319416635
_cell_angle_gamma    115.45784687807485

_space_group_name_H-M_alt    "P 1"
_space_group_IT_number       1

loop_
  _space_group_symop_operation_xyz
  'x, y, z'

loop_
  _atom_site_type_symbol
  _atom_site_label
  _atom_site_symmetry_multiplicity
  _atom_site_fract_x
  _atom_site_fract_y
  _atom_site_fract_z
  _atom_site_occupancy
  O   O1        1.0  0.11578480817549806  0.048194208869279984  0.16397901833394415  1.0000
  O   O2        1.0  0.8842151918245018  0.9518057911307198  0.8360209816660558  1.0000
