data_image0
_chemical_formula_structural       Zr12O6
_chemical_formula_sum              "Zr12 O6"
_cell_length_a       5.682829820421568
_cell_length_b       5.682630168603156
_cell_length_c       10.525389249511946
_cell_angle_alpha    89.98944446594952
_cell_angle_beta     90.02569971295699
_cell_angle_gamma    119.99491539061047

_space_group_name_H-M_alt    "P 1"
_space_group_IT_number       1

loop_
  _space_group_symop_operation_xyz
  'x, y, z'

loop_
  _atom_site_type_symbol
  _atom_site_label
  _atom_site_symmetry_multiplicity
  _atom_site_fract_x
  _atom_site_fract_y
  _atom_site_fract_z
  _atom_site_occupancy
  Zr  Zr1       1.0  0.0003991499732055676  0.6585598004558828  0.24619221973439637  1.0000
  Zr  Zr2       1.0  0.9996468097812278  0.6668735208520779  0.7487784100422393  1.0000
  Zr  Zr3       1.0  0.9997018501671108  0.33246247913596527  0.0013256799595864396  1.0000
  Zr  Zr4       1.0  0.00035197949215477823  0.34209542951137517  0.5038401803644412  1.0000
  Zr  Zr5       1.0  0.3328373895781621  0.3324228896294077  0.7486344997297429  1.0000
  Zr  Zr6       1.0  0.34176420981453226  0.342053429767645  0.2460277695677595  1.0000
  Zr  Zr7       1.0  0.33304075999737415  0.0005096401603639719  0.0012584300853865525  1.0000
  Zr  Zr8       1.0  0.34162976019653063  0.9998554494447064  0.5038244698622366  1.0000
  Zr  Zr9       1.0  0.6672960498488198  0.6667749004939973  0.0013397499313935921  1.0000
  Zr  Zr10      1.0  0.6580428904102926  0.6582649997241723  0.5039590197064489  1.0000
  Zr  Zr11      1.0  0.6579369998792588  0.9999656592368514  0.24612809996277016  1.0000
  Zr  Zr12      1.0  0.6674695898295383  0.000539139816101785  0.748705239681406  1.0000
  O   O1        1.0  0.3332585393008418  0.6666863590618235  0.11779414014514358  1.0000
  O   O2        1.0  0.3331846687790102  0.666676229142289  0.6321927197875562  1.0000
  O   O3        1.0  0.33340820964372253  0.6662594305881866  0.37498867998415064  1.0000
  O   O4        1.0  0.9999850900948979  0.9999847789972923  0.8750019601733171  1.0000
  O   O5        1.0  0.6666369298715346  0.33332555977171524  0.87500422966048  1.0000
  O   O6        1.0  0.6665101305368771  0.33339130012395074  0.37500550982544895  1.0000
