data_image0
_chemical_formula_structural       Zr10O20
_chemical_formula_sum              "Zr10 O20"
_cell_length_a       8.17203845
_cell_length_b       8.17203845
_cell_length_c       5.09730473
_cell_angle_alpha    90.0
_cell_angle_beta     90.0
_cell_angle_gamma    90.0

_space_group_name_H-M_alt    "P 1"
_space_group_IT_number       1

loop_
  _space_group_symop_operation_xyz
  'x, y, z'

loop_
  _atom_site_type_symbol
  _atom_site_label
  _atom_site_symmetry_multiplicity
  _atom_site_fract_x
  _atom_site_fract_y
  _atom_site_fract_z
  _atom_site_occupancy
  Zr  Zr1       1.0  0.0756133396350078  0.8830192801214568  0.7541096508075552  1.0000
  Zr  Zr2       1.0  0.11698072049038552  0.5756133402468502  0.24589034919244468  1.0000
  Zr  Zr3       1.0  0.25  0.25000000061184235  0.8191578100923151  1.0000
  Zr  Zr4       1.0  0.38301927950961445  0.9243866597531496  0.24589034919244468  1.0000
  Zr  Zr5       1.0  0.4243866603649922  0.616980719878543  0.7541096508075552  1.0000
  Zr  Zr6       1.0  0.5756133396350078  0.38301928012145686  0.24589034919244468  1.0000
  Zr  Zr7       1.0  0.6169807204903855  0.07561334024685025  0.7541096508075552  1.0000
  Zr  Zr8       1.0  0.7499999999999999  0.7499999993881575  0.1808421899076848  1.0000
  Zr  Zr9       1.0  0.8830192795096145  0.4243866597531497  0.7541096508075552  1.0000
  Zr  Zr10      1.0  0.9243866603649922  0.11698071987854307  0.24589034919244468  1.0000
  O   O1        1.0  0.04535068008686442  0.14035054981251258  0.6128296198606905  1.0000
  O   O2        1.0  0.04346935046398569  0.33882163997470005  0.07577051019274651  1.0000
  O   O3        1.0  0.14035055042435501  0.454649320524978  0.6128296198606905  1.0000
  O   O4        1.0  0.16117835941345737  0.04346934985214324  0.07577051019274651  1.0000
  O   O5        1.0  0.24999999938815753  0.7499999999999999  0.5000000009809106  1.0000
  O   O6        1.0  0.24999999938815753  0.7499999999999999  0.0  1.0000
  O   O7        1.0  0.3388216405865425  0.4565306501478567  0.07577051019274651  1.0000
  O   O8        1.0  0.35964944957564493  0.04535067947502198  0.6128296198606905  1.0000
  O   O9        1.0  0.45653064953601424  0.16117836002529984  0.07577051019274651  1.0000
  O   O10       1.0  0.45464931991313556  0.35964945018748734  0.6128296198606905  1.0000
  O   O11       1.0  0.5453506800868644  0.6403505498125125  0.3871703801393094  1.0000
  O   O12       1.0  0.5434693504639856  0.8388216399747  0.9242294898072535  1.0000
  O   O13       1.0  0.640350550424355  0.954649320524978  0.3871703801393094  1.0000
  O   O14       1.0  0.6611783594134574  0.5434693498521431  0.9242294898072535  1.0000
  O   O15       1.0  0.7499999993881575  0.24999999999999994  0.5000000009809106  1.0000
  O   O16       1.0  0.7499999993881575  0.24999999999999994  0.0  1.0000
  O   O17       1.0  0.8388216405865425  0.9565306501478567  0.9242294898072535  1.0000
  O   O18       1.0  0.8596494495756448  0.5453506794750219  0.3871703801393094  1.0000
  O   O19       1.0  0.9565306495360142  0.6611783600252997  0.9242294898072535  1.0000
  O   O20       1.0  0.9546493199131355  0.8596494501874873  0.3871703801393094  1.0000
