data_image0
_chemical_formula_structural       Li4Zr4O10
_chemical_formula_sum              "Li4 Zr4 O10"
_cell_length_a       5.6313008354611105
_cell_length_b       5.6313008354611105
_cell_length_c       7.607986615957273
_cell_angle_alpha    71.91806941995503
_cell_angle_beta     71.91806941995503
_cell_angle_gamma    72.00159514032725

_space_group_name_H-M_alt    "P 1"
_space_group_IT_number       1

loop_
  _space_group_symop_operation_xyz
  'x, y, z'

loop_
  _atom_site_type_symbol
  _atom_site_label
  _atom_site_symmetry_multiplicity
  _atom_site_fract_x
  _atom_site_fract_y
  _atom_site_fract_z
  _atom_site_occupancy
  Li  Li1       1.0  0.21855499977113144  0.8151410002019395  0.49928200032707964  1.0000
  Li  Li2       1.0  0.8151410002019395  0.21855499977113135  0.9992820003270797  1.0000
  Li  Li3       1.0  0.18485899979806056  0.7814450002288685  0.000717999672920322  1.0000
  Li  Li4       1.0  0.7814450002288685  0.18485899979806045  0.5007179996729204  1.0000
  Zr  Zr1       1.0  0.7769990006681973  0.721112999844647  0.37912999936946784  1.0000
  Zr  Zr2       1.0  0.7211129998446472  0.7769990006681973  0.8791299993694679  1.0000
  Zr  Zr3       1.0  0.2788870001553529  0.22300099933180265  0.1208700006305322  1.0000
  Zr  Zr4       1.0  0.2230009993318026  0.2788870001553529  0.6208700006305322  1.0000
  O   O1        1.0  0.0  0.5  0.0  1.0000
  O   O2        1.0  0.07010999949083882  0.3607280005597019  0.37166000053232284  1.0000
  O   O3        1.0  0.3607280005597019  0.07010999949083865  0.871660000532323  1.0000
  O   O4        1.0  0.061943000109665684  0.9380569998903343  0.25  1.0000
  O   O5        1.0  0.5  0.5  0.5  1.0000
  O   O6        1.0  0.9380569998903342  0.06194300010966564  0.75  1.0000
  O   O7        1.0  0.5000000000000001  0.49999999999999994  0.0  1.0000
  O   O8        1.0  0.6392719994402979  0.9298900005091613  0.1283399994676771  1.0000
  O   O9        1.0  0.9298900005091613  0.639271999440298  0.6283399994676772  1.0000
  O   O10       1.0  0.4999999999999999  0.0  0.5  1.0000
