data_image0
_chemical_formula_structural       Li12La4O12
_chemical_formula_sum              "Li12 La4 O12"
_cell_length_a       10.52719076600982
_cell_length_b       6.07942535245948
_cell_length_c       11.159245218244063
_cell_angle_alpha    90.06650670247826
_cell_angle_beta     89.93368216790928
_cell_angle_gamma    150.11882287648046

_space_group_name_H-M_alt    "P 1"
_space_group_IT_number       1

loop_
  _space_group_symop_operation_xyz
  'x, y, z'

loop_
  _atom_site_type_symbol
  _atom_site_label
  _atom_site_symmetry_multiplicity
  _atom_site_fract_x
  _atom_site_fract_y
  _atom_site_fract_z
  _atom_site_occupancy
  Li  Li1       1.0  0.3644214998731142  0.4236939193101104  0.44238371994212344  1.0000
  Li  Li2       1.0  0.3075697011740147  0.24343239161557112  0.9406584198253222  1.0000
  Li  Li3       1.0  0.05742441956655991  0.4255858894100676  0.9410839999640713  1.0000
  Li  Li4       1.0  0.6885659611028803  0.7459610614067516  0.05953854030561442  1.0000
  Li  Li5       1.0  0.9443104405573861  0.25173096040417764  0.4411654303147319  1.0000
  Li  Li6       1.0  0.6305773597235085  0.5747398088565785  0.5596357000846097  1.0000
  Li  Li7       1.0  0.3113033203352091  0.6812961512857175  0.5616053695960253  1.0000
  Li  Li8       1.0  0.6890030203929073  0.3225234902515662  0.4420113096012261  1.0000
  Li  Li9       1.0  0.6304666805187753  0.31870700084063913  0.940967389760623  1.0000
  Li  Li10      1.0  0.3617027300844498  0.6675685898468363  0.058076589799281805  1.0000
  Li  Li11      1.0  0.9423216596703142  0.574671009421351  0.05941258996303498  1.0000
  Li  Li12      1.0  0.05428136912902937  0.742385048514894  0.559778979971634  1.0000
  La  La1       1.0  0.666519788891173  0.00044960838766112954  0.7515931600649982  1.0000
  La  La2       1.0  0.33212213040898714  0.9985405808056796  0.2509181798082232  1.0000
  La  La3       1.0  0.0017987695713786416  0.0015648985860488161  0.25019132998362914  1.0000
  La  La4       1.0  0.9978000695441818  0.9972576795705594  0.7507129698479738  1.0000
  O   O1        1.0  0.33222760975155835  0.3686004290644205  0.6172187396867866  1.0000
  O   O2        1.0  0.29679941045635827  0.2577275901502369  0.11503247959372291  1.0000
  O   O3        1.0  0.6988305995982212  0.7337443896770408  0.8848676801573704  1.0000
  O   O4        1.0  0.6652182391598793  0.6282457484936176  0.3842087802714853  1.0000
  O   O5        1.0  0.963108869874578  0.26344969951863045  0.6168952495969241  1.0000
  O   O6        1.0  0.03854644026010263  0.37169446144381296  0.11602076021758387  1.0000
  O   O7        1.0  0.6650435802672077  0.3662225805538339  0.11659833044565895  1.0000
  O   O8        1.0  0.2993495693643019  0.635096659030265  0.3854782999850288  1.0000
  O   O9        1.0  0.6978578900970305  0.3624806795831137  0.6175021998702868  1.0000
  O   O10       1.0  0.33494820924941987  0.6373057987189643  0.8844831597865593  1.0000
  O   O11       1.0  0.9649003398629082  0.6293319693633508  0.8854009302128669  1.0000
  O   O12       1.0  0.03468933079454713  0.7357209010638259  0.3849117098021467  1.0000
