data_image0
_chemical_formula_structural       O12
_chemical_formula_sum              "O12"
_cell_length_a       5.168494
_cell_length_b       5.168494
_cell_length_c       7.549121
_cell_angle_alpha    90.0
_cell_angle_beta     90.0
_cell_angle_gamma    90.0

_space_group_name_H-M_alt    "P 1"
_space_group_IT_number       1

loop_
  _space_group_symop_operation_xyz
  'x, y, z'

loop_
  _atom_site_type_symbol
  _atom_site_label
  _atom_site_symmetry_multiplicity
  _atom_site_fract_x
  _atom_site_fract_y
  _atom_site_fract_z
  _atom_site_occupancy
  O   O1        1.0  0.929491000666732  0.2689629996668275  0.500842000015631  1.0000
  O   O2        1.0  0.07050899933326805  0.7310370003331724  0.0008420000156309589  1.0000
  O   O3        1.0  0.7310370003331724  0.929491000666732  0.750842000015631  1.0000
  O   O4        1.0  0.2689629996668275  0.07050899933326805  0.25084200001563095  1.0000
  O   O5        1.0  0.7685940004960826  0.42970400081725935  0.9992019998089843  1.0000
  O   O6        1.0  0.23140599950391738  0.5702959991827407  0.4992019998089844  1.0000
  O   O7        1.0  0.5702959991827407  0.7685940004960826  0.24920199980898436  1.0000
  O   O8        1.0  0.42970400081725935  0.23140599950391738  0.7492019998089844  1.0000
  O   O9        1.0  0.5120400004333951  0.00959399972216278  0.24994299998635602  1.0000
  O   O10       1.0  0.48795999956660485  0.9904060002778372  0.749942999986356  1.0000
  O   O11       1.0  0.9904060002778372  0.5120400004333951  0.49994299998635605  1.0000
  O   O12       1.0  0.00959399972216278  0.48795999956660485  0.9999429999863559  1.0000
