data_image0
_chemical_formula_structural       Zr12O24
_chemical_formula_sum              "Zr12 O24"
_cell_length_a       4.957159
_cell_length_b       5.916337
_cell_length_c       16.316733
_cell_angle_alpha    90.0
_cell_angle_beta     90.0
_cell_angle_gamma    90.0

_space_group_name_H-M_alt    "P 1"
_space_group_IT_number       1

loop_
  _space_group_symop_operation_xyz
  'x, y, z'

loop_
  _atom_site_type_symbol
  _atom_site_label
  _atom_site_symmetry_multiplicity
  _atom_site_fract_x
  _atom_site_fract_y
  _atom_site_fract_z
  _atom_site_occupancy
  Zr  Zr1       1.0  0.0024620009162506186  0.3458490008260179  0.08405300007054109  1.0000
  Zr  Zr2       1.0  0.0  0.01706499984703373  0.25  1.0000
  Zr  Zr3       1.0  0.9975379990837493  0.3458490008260179  0.41594699992945894  1.0000
  Zr  Zr4       1.0  0.0  0.9829350001529663  0.75  1.0000
  Zr  Zr5       1.0  0.0024620009162506186  0.6541509991739821  0.5840530000705411  1.0000
  Zr  Zr6       1.0  0.9975379990837493  0.6541509991739821  0.9159469999294589  1.0000
  Zr  Zr7       1.0  0.5024620009162506  0.15415099917398215  0.9159469999294589  1.0000
  Zr  Zr8       1.0  0.49753799908374935  0.15415099917398215  0.5840530000705411  1.0000
  Zr  Zr9       1.0  0.49999999999999994  0.4829350001529663  0.75  1.0000
  Zr  Zr10      1.0  0.5024620009162506  0.8458490008260179  0.41594699992945894  1.0000
  Zr  Zr11      1.0  0.49753799908374935  0.8458490008260179  0.08405300007054109  1.0000
  Zr  Zr12      1.0  0.49999999999999994  0.5170649998470338  0.25  1.0000
  O   O1        1.0  0.2027829992945556  0.6288050004588989  0.030218000135198635  1.0000
  O   O2        1.0  0.2027829992945556  0.37119499954110113  0.5302180001351987  1.0000
  O   O3        1.0  0.2808000005648396  0.19350999951490255  0.6959339997780193  1.0000
  O   O4        1.0  0.2808000005648396  0.8064900004850974  0.1959339997780193  1.0000
  O   O5        1.0  0.2092970005601999  0.06760100041630489  0.3626490002624913  1.0000
  O   O6        1.0  0.2092970005601999  0.9323989995836951  0.8626490002624914  1.0000
  O   O7        1.0  0.2907029994398001  0.5676010004163049  0.3626490002624913  1.0000
  O   O8        1.0  0.2907029994398001  0.43239899958369515  0.8626490002624914  1.0000
  O   O9        1.0  0.21919999943516033  0.30649000048509745  0.1959339997780193  1.0000
  O   O10       1.0  0.21919999943516033  0.6935099995149026  0.6959339997780193  1.0000
  O   O11       1.0  0.2972170007054444  0.1288050004588988  0.030218000135198635  1.0000
  O   O12       1.0  0.2972170007054444  0.8711949995411011  0.5302180001351987  1.0000
  O   O13       1.0  0.7027829992945556  0.1288050004588988  0.4697819998648014  1.0000
  O   O14       1.0  0.7027829992945556  0.8711949995411011  0.9697819998648015  1.0000
  O   O15       1.0  0.7808000005648396  0.30649000048509745  0.30406600022198077  1.0000
  O   O16       1.0  0.7808000005648396  0.6935099995149026  0.8040660002219808  1.0000
  O   O17       1.0  0.7092970005601998  0.43239899958369515  0.6373509997375087  1.0000
  O   O18       1.0  0.7092970005601998  0.5676010004163049  0.13735099973750872  1.0000
  O   O19       1.0  0.7907029994398  0.06760100041630489  0.13735099973750872  1.0000
  O   O20       1.0  0.7907029994398  0.9323989995836951  0.6373509997375087  1.0000
  O   O21       1.0  0.7191999994351603  0.19350999951490255  0.8040660002219808  1.0000
  O   O22       1.0  0.7191999994351603  0.8064900004850974  0.30406600022198077  1.0000
  O   O23       1.0  0.7972170007054444  0.37119499954110113  0.9697819998648015  1.0000
  O   O24       1.0  0.7972170007054444  0.6288050004588989  0.4697819998648014  1.0000
