data_image0
_chemical_formula_structural       Li4La4O8
_chemical_formula_sum              "Li4 La4 O8"
_cell_length_a       6.219589
_cell_length_b       6.710704
_cell_length_c       6.738396729610093
_cell_angle_alpha    62.60594471141637
_cell_angle_beta     90.0
_cell_angle_gamma    90.0

_space_group_name_H-M_alt    "P 1"
_space_group_IT_number       1

loop_
  _space_group_symop_operation_xyz
  'x, y, z'

loop_
  _atom_site_type_symbol
  _atom_site_label
  _atom_site_symmetry_multiplicity
  _atom_site_fract_x
  _atom_site_fract_y
  _atom_site_fract_z
  _atom_site_occupancy
  Li  Li1       1.0  0.8299889992731031  0.3972120007000722  0.28409599961489435  1.0000
  Li  Li2       1.0  0.32998899927310316  0.10278799929992785  0.21590400038510563  1.0000
  Li  Li3       1.0  0.6700110007268969  0.897212000700072  0.7840959996148943  1.0000
  Li  Li4       1.0  0.17001100072689693  0.602787999299928  0.7159040003851056  1.0000
  La  La1       1.0  0.13880199961765963  0.04092300033232065  0.7379849999348128  1.0000
  La  La2       1.0  0.36119800038234035  0.5409230003323207  0.23798499993481287  1.0000
  La  La3       1.0  0.6388019996176597  0.4590769996676794  0.7620150000651871  1.0000
  La  La4       1.0  0.8611980003823405  0.9590769996676793  0.26201500006518713  1.0000
  O   O1        1.0  0.8041339998511156  0.10954899943371847  0.85724100057933  1.0000
  O   O2        1.0  0.6958660001488844  0.6095489994337185  0.3572410005793299  1.0000
  O   O3        1.0  0.09972899977795961  0.23710999921631506  0.3178080001016251  1.0000
  O   O4        1.0  0.5997289997779596  0.2628900007836848  0.18219199989837492  1.0000
  O   O5        1.0  0.40027100022204043  0.737109999216315  0.8178080001016251  1.0000
  O   O6        1.0  0.9002710002220403  0.7628900007836847  0.6821919998983749  1.0000
  O   O7        1.0  0.30413399985111556  0.3904510005662815  0.6427589994206702  1.0000
  O   O8        1.0  0.19586600014888444  0.8904510005662813  0.14275899942067008  1.0000
