data_image0
_chemical_formula_structural       Li8ZrO6
_chemical_formula_sum              "Li8 Zr1 O6"
_cell_length_a       6.11830400729025
_cell_length_b       6.118304005377652
_cell_length_c       6.118304183792486
_cell_angle_alpha    53.811670038149956
_cell_angle_beta     53.811670095637275
_cell_angle_gamma    53.811673918423566

_space_group_name_H-M_alt    "P 1"
_space_group_IT_number       1

loop_
  _space_group_symop_operation_xyz
  'x, y, z'

loop_
  _atom_site_type_symbol
  _atom_site_label
  _atom_site_symmetry_multiplicity
  _atom_site_fract_x
  _atom_site_fract_y
  _atom_site_fract_z
  _atom_site_occupancy
  Li  Li1       1.0  0.10334635129889232  0.7666155095595774  0.49466862917314175  1.0000
  Li  Li2       1.0  0.5053313707409439  0.8966536500262045  0.23338448920124016  1.0000
  Li  Li3       1.0  0.23338449070600542  0.5053313696814302  0.896653649580953  1.0000
  Li  Li4       1.0  0.34489529010222586  0.34489529010222586  0.34489529062013435  1.0000
  Li  Li5       1.0  0.655104709897774  0.655104709897774  0.6551047093798654  1.0000
  Li  Li6       1.0  0.7666155092939946  0.4946686303185697  0.10334635041904702  1.0000
  Li  Li7       1.0  0.494668629259056  0.10334634997379567  0.7666155107987597  1.0000
  Li  Li8       1.0  0.8966536487011076  0.23338449044042264  0.5053313708268582  1.0000
  Zr  Zr1       1.0  0.0  0.0  0.0  1.0000
  O   O1        1.0  0.23556814113396612  0.9074185198719625  0.612748269169777  1.0000
  O   O2        1.0  0.3872517290023782  0.7644318598691209  0.09258148095279514  1.0000
  O   O3        1.0  0.0925814787640643  0.3872517302471358  0.764431860813094  1.0000
  O   O4        1.0  0.9074185212359356  0.6127482697528642  0.23556813918690586  1.0000
  O   O5        1.0  0.6127482709976221  0.23556814013087893  0.9074185190472048  1.0000
  O   O6        1.0  0.7644318588660339  0.09258148012803734  0.38725173083022285  1.0000
