data_image0
_chemical_formula_structural       Li8Zr2O8
_chemical_formula_sum              "Li8 Zr2 O8"
_cell_length_a       5.583781861576579
_cell_length_b       5.583781861576579
_cell_length_c       6.46217665
_cell_angle_alpha    90.0
_cell_angle_beta     90.0
_cell_angle_gamma    95.89578341377269

_space_group_name_H-M_alt    "P 1"
_space_group_IT_number       1

loop_
  _space_group_symop_operation_xyz
  'x, y, z'

loop_
  _atom_site_type_symbol
  _atom_site_label
  _atom_site_symmetry_multiplicity
  _atom_site_fract_x
  _atom_site_fract_y
  _atom_site_fract_z
  _atom_site_occupancy
  Li  Li1       1.0  0.15650400980292398  0.8434959901970762  0.0  1.0000
  Li  Li2       1.0  0.15650400980292398  0.8434959901970762  0.49999999922626687  1.0000
  Li  Li3       1.0  0.5985495300983509  0.8818651709114208  0.24999999961313343  1.0000
  Li  Li4       1.0  0.11813482908857925  0.4014504699016491  0.7500000003868665  1.0000
  Li  Li5       1.0  0.8818651709114207  0.5985495300983509  0.24999999961313343  1.0000
  Li  Li6       1.0  0.4014504699016491  0.1181348290885793  0.7500000003868665  1.0000
  Li  Li7       1.0  0.8434959901970761  0.15650400980292392  0.0  1.0000
  Li  Li8       1.0  0.8434959901970761  0.15650400980292392  0.49999999922626687  1.0000
  Zr  Zr1       1.0  0.6542667996195539  0.6542667996195539  0.7500000003868665  1.0000
  Zr  Zr2       1.0  0.345733200380446  0.3457332003804461  0.24999999961313343  1.0000
  O   O1        1.0  0.2732042597469342  0.6905749491209989  0.24999999961313343  1.0000
  O   O2        1.0  0.3094250508790012  0.7267957402530659  0.7500000003868665  1.0000
  O   O3        1.0  0.20195207945336244  0.20195207945336244  0.5110364400205618  1.0000
  O   O4        1.0  0.20195207945336244  0.20195207945336244  0.9889635607531713  1.0000
  O   O5        1.0  0.7980479205466376  0.7980479205466376  0.011036439246828697  1.0000
  O   O6        1.0  0.7980479205466376  0.7980479205466376  0.4889635599794382  1.0000
  O   O7        1.0  0.6905749491209989  0.27320425974693424  0.24999999961313343  1.0000
  O   O8        1.0  0.7267957402530658  0.30942505087900113  0.7500000003868665  1.0000
