data_image0
_chemical_formula_structural       Zr4O8
_chemical_formula_sum              "Zr4 O8"
_cell_length_a       5.90227882
_cell_length_b       5.07498875
_cell_length_c       5.44015662
_cell_angle_alpha    90.0
_cell_angle_beta     90.0
_cell_angle_gamma    90.0

_space_group_name_H-M_alt    "P 1"
_space_group_IT_number       1

loop_
  _space_group_symop_operation_xyz
  'x, y, z'

loop_
  _atom_site_type_symbol
  _atom_site_label
  _atom_site_symmetry_multiplicity
  _atom_site_fract_x
  _atom_site_fract_y
  _atom_site_fract_z
  _atom_site_occupancy
  Zr  Zr1       1.0  0.14282047929413136  0.4178725007025877  0.45691036924595013  1.0000
  Zr  Zr2       1.0  0.35717952070586867  0.917872499717364  0.9569103692459502  1.0000
  Zr  Zr3       1.0  0.6428204792941313  0.08212750028263609  0.45691036924595013  1.0000
  Zr  Zr4       1.0  0.8571795207058686  0.5821274992974121  0.9569103692459502  1.0000
  O   O1        1.0  0.3818074304392146  0.22105852944008988  0.22051155946315384  1.0000
  O   O2        1.0  0.11797011988667794  0.7211584301541555  0.19364707003600937  1.0000
  O   O3        1.0  0.3820298801133221  0.22115842916893166  0.6936470700360094  1.0000
  O   O4        1.0  0.11819256956078533  0.7210585304253136  0.7205115594631538  1.0000
  O   O5        1.0  0.8818074304392147  0.2789414695746862  0.22051155946315384  1.0000
  O   O6        1.0  0.6179701198866779  0.7788415708310682  0.19364707003600937  1.0000
  O   O7        1.0  0.8820298801133221  0.27884156984584446  0.6936470700360094  1.0000
  O   O8        1.0  0.6181925695607854  0.77894147055991  0.7205115594631538  1.0000
