data_image0
_chemical_formula_structural       Zr3O6
_chemical_formula_sum              "Zr3 O6"
_cell_length_a       5.473917
_cell_length_b       5.489931477945148
_cell_length_c       5.807077952579852
_cell_angle_alpha    107.25951912449675
_cell_angle_beta     107.30911408042209
_cell_angle_gamma    110.71170755288345

_space_group_name_H-M_alt    "P 1"
_space_group_IT_number       1

loop_
  _space_group_symop_operation_xyz
  'x, y, z'

loop_
  _atom_site_type_symbol
  _atom_site_label
  _atom_site_symmetry_multiplicity
  _atom_site_fract_x
  _atom_site_fract_y
  _atom_site_fract_z
  _atom_site_occupancy
  Zr  Zr1       1.0  0.8096370001104309  0.6725670008664341  0.9808329998866854  1.0000
  Zr  Zr2       1.0  0.1740990002281698  0.305372000864135  0.9796829997957913  1.0000
  Zr  Zr3       1.0  0.9917450011678323  0.488795000597443  0.48022800075219907  1.0000
  O   O1        1.0  0.16442099986996733  0.6611940010761662  0.24891900064171227  1.0000
  O   O2        1.0  0.031442999678304585  0.864631000681136  0.770709999985861  1.0000
  O   O3        1.0  0.6182909995417978  0.4610199994629299  0.19740100068332156  1.0000
  O   O4        1.0  0.956629999590181  0.11421599905907219  0.19269499963339384  1.0000
  O   O5        1.0  0.3658880001915842  0.5193460006745956  0.7649400008119872  1.0000
  O   O6        1.0  0.8177959997025797  0.3153049996110614  0.7104429996099634  1.0000
