data_image0
_chemical_formula_structural       Zr4O8
_chemical_formula_sum              "Zr4 O8"
_cell_length_a       3.48182176
_cell_length_b       10.41383531
_cell_length_c       3.88098548
_cell_angle_alpha    90.0
_cell_angle_beta     90.0
_cell_angle_gamma    90.0

_space_group_name_H-M_alt    "P 1"
_space_group_IT_number       1

loop_
  _space_group_symop_operation_xyz
  'x, y, z'

loop_
  _atom_site_type_symbol
  _atom_site_label
  _atom_site_symmetry_multiplicity
  _atom_site_fract_x
  _atom_site_fract_y
  _atom_site_fract_z
  _atom_site_occupancy
  Zr  Zr1       1.0  0.25  0.11860955001025458  0.25193303995561456  1.0000
  Zr  Zr2       1.0  0.25  0.6186095495301241  0.24806696004438542  1.0000
  Zr  Zr3       1.0  0.7500000000000001  0.8813904499897455  0.7480669600443853  1.0000
  Zr  Zr4       1.0  0.7500000000000001  0.3813904504698759  0.7519330399556146  1.0000
  O   O1        1.0  0.25  0.7860545299904499  0.568823050582503  1.0000
  O   O2        1.0  0.25  0.2860545304705803  0.931176949417497  1.0000
  O   O3        1.0  0.25  0.5251677597348138  0.7366035597742046  1.0000
  O   O4        1.0  0.25  0.02516776021494429  0.7633964402257954  1.0000
  O   O5        1.0  0.7500000000000001  0.4748322402651863  0.26339644022579545  1.0000
  O   O6        1.0  0.7500000000000001  0.9748322397850557  0.23660355977420458  1.0000
  O   O7        1.0  0.7500000000000001  0.21394547000955022  0.4311769494174969  1.0000
  O   O8        1.0  0.7500000000000001  0.7139454695294197  0.06882305058250308  1.0000
