data_image0
_chemical_formula_structural       Zr4O8
_chemical_formula_sum              "Zr4 O8"
_cell_length_a       5.50550846
_cell_length_b       7.7597935
_cell_length_c       3.48076023
_cell_angle_alpha    90.0
_cell_angle_beta     90.0
_cell_angle_gamma    90.0

_space_group_name_H-M_alt    "P 1"
_space_group_IT_number       1

loop_
  _space_group_symop_operation_xyz
  'x, y, z'

loop_
  _atom_site_type_symbol
  _atom_site_label
  _atom_site_symmetry_multiplicity
  _atom_site_fract_x
  _atom_site_fract_y
  _atom_site_fract_z
  _atom_site_occupancy
  Zr  Zr1       1.0  0.13591669969025894  0.8283053898277062  0.2500000007182339  1.0000
  Zr  Zr2       1.0  0.36408330030974106  0.32830538982770613  0.2500000007182339  1.0000
  Zr  Zr3       1.0  0.635916699690259  0.6716946101722938  0.7499999992817661  1.0000
  Zr  Zr4       1.0  0.8640833003097411  0.1716946101722939  0.7499999992817661  1.0000
  O   O1        1.0  0.11489111942986642  0.10871819978199163  0.2500000007182339  1.0000
  O   O2        1.0  0.14022010057904805  0.3552548698621941  0.7499999992817661  1.0000
  O   O3        1.0  0.3597798994209519  0.8552548698621941  0.7499999992817661  1.0000
  O   O4        1.0  0.38510888057013354  0.6087181997819916  0.2500000007182339  1.0000
  O   O5        1.0  0.6148911194298664  0.3912818002180084  0.7499999992817661  1.0000
  O   O6        1.0  0.640220100579048  0.14474513013780585  0.2500000007182339  1.0000
  O   O7        1.0  0.8597798994209519  0.6447451301378058  0.2500000007182339  1.0000
  O   O8        1.0  0.8851088805701336  0.8912818002180084  0.7499999992817661  1.0000
