data_image0
_chemical_formula_structural       Li2Zr2O4
_chemical_formula_sum              "Li2 Zr2 O4"
_cell_length_a       5.4322389954471815
_cell_length_b       5.4322389954471815
_cell_length_c       5.4322389954471815
_cell_angle_alpha    132.7411915869382
_cell_angle_beta     132.7411915869382
_cell_angle_gamma    69.06088452949388

_space_group_name_H-M_alt    "P 1"
_space_group_IT_number       1

loop_
  _space_group_symop_operation_xyz
  'x, y, z'

loop_
  _atom_site_type_symbol
  _atom_site_label
  _atom_site_symmetry_multiplicity
  _atom_site_fract_x
  _atom_site_fract_y
  _atom_site_fract_z
  _atom_site_occupancy
  Li  Li1       1.0  0.0  0.0  0.0  1.0000
  Li  Li2       1.0  0.75  0.25  0.5  1.0000
  Zr  Zr1       1.0  0.5  0.5  0.0  1.0000
  Zr  Zr2       1.0  0.25  0.75  0.5  1.0000
  O   O1        1.0  0.7559980000960846  0.7559980000960846  0.0  1.0000
  O   O2        1.0  0.2440019999039152  0.2440019999039152  0.0  1.0000
  O   O3        1.0  0.9940019999039151  0.4940019999039152  0.5  1.0000
  O   O4        1.0  0.5059980000960848  0.005998000096084723  0.5  1.0000
