data_image0
_chemical_formula_structural       Li16Zr4O16
_chemical_formula_sum              "Li16 Zr4 O16"
_cell_length_a       14.713179
_cell_length_b       5.531793
_cell_length_c       5.576705319113966
_cell_angle_alpha    63.28070816733634
_cell_angle_beta     90.0
_cell_angle_gamma    90.0

_space_group_name_H-M_alt    "P 1"
_space_group_IT_number       1

loop_
  _space_group_symop_operation_xyz
  'x, y, z'

loop_
  _atom_site_type_symbol
  _atom_site_label
  _atom_site_symmetry_multiplicity
  _atom_site_fract_x
  _atom_site_fract_y
  _atom_site_fract_z
  _atom_site_occupancy
  Li  Li1       1.0  0.7906320000592666  0.7070569990279874  0.7464540007729021  1.0000
  Li  Li2       1.0  0.0016600001943835522  0.7037919998469272  0.7632259996286054  1.0000
  Li  Li3       1.0  0.22804200030462485  0.8554710003110717  0.7207109998042649  1.0000
  Li  Li4       1.0  0.38801299977387615  0.7477609990672416  0.6649760008833168  1.0000
  Li  Li5       1.0  0.7093679999407334  0.20705699902798733  0.7464540007729021  1.0000
  Li  Li6       1.0  0.49833999980561644  0.2037919998469273  0.7632259996286054  1.0000
  Li  Li7       1.0  0.27195799969537515  0.3554710003110718  0.7207109998042649  1.0000
  Li  Li8       1.0  0.1119870002261238  0.2477609990672417  0.6649760008833168  1.0000
  Li  Li9       1.0  0.8880129997738762  0.7522390009327583  0.3350239991166831  1.0000
  Li  Li10      1.0  0.7280420003046248  0.6445289996889281  0.27928900019573494  1.0000
  Li  Li11      1.0  0.5016600001943835  0.7962080001530726  0.23677400037139454  1.0000
  Li  Li12      1.0  0.2906320000592666  0.7929430009720125  0.2535459992270977  1.0000
  Li  Li13      1.0  0.6119870002261238  0.2522390009327583  0.3350239991166831  1.0000
  Li  Li14      1.0  0.771957999695375  0.1445289996889281  0.27928900019573494  1.0000
  Li  Li15      1.0  0.9983399998056164  0.29620800015307264  0.23677400037139454  1.0000
  Li  Li16      1.0  0.2093679999407334  0.2929430009720126  0.2535459992270977  1.0000
  Zr  Zr1       1.0  0.6032050000886959  0.6442799993768029  0.7851859994278515  1.0000
  Zr  Zr2       1.0  0.8967949999113041  0.144279999376803  0.7851859994278515  1.0000
  Zr  Zr3       1.0  0.103205000088696  0.8557200006231969  0.2148140005721484  1.0000
  Zr  Zr4       1.0  0.396794999911304  0.3557200006231969  0.2148140005721484  1.0000
  O   O1        1.0  0.6997749996788593  0.46515900029822466  0.05554399971894463  1.0000
  O   O2        1.0  0.48882600014585564  0.7961949989903618  0.8805200006022614  1.0000
  O   O3        1.0  0.8002250003211406  0.9651590002982247  0.05554399971894463  1.0000
  O   O4        1.0  0.011173999854144369  0.2961949989903619  0.8805200006022614  1.0000
  O   O5        1.0  0.6837749999507244  0.9585789997173811  0.5749030007678834  1.0000
  O   O6        1.0  0.598313999985999  0.46782699925057963  0.5406110003061495  1.0000
  O   O7        1.0  0.09831399998599895  0.032173000749420436  0.45938899969385033  1.0000
  O   O8        1.0  0.8162250000492755  0.45857899971738114  0.5749030007678834  1.0000
  O   O9        1.0  0.18377499995072444  0.5414210002826186  0.4250969992321166  1.0000
  O   O10       1.0  0.901686000014001  0.9678269992505795  0.5406110003061495  1.0000
  O   O11       1.0  0.40168600001400107  0.5321730007494203  0.45938899969385033  1.0000
  O   O12       1.0  0.31622500004927556  0.04142100028261876  0.4250969992321166  1.0000
  O   O13       1.0  0.9888260001458556  0.703805001009638  0.11947999939773848  1.0000
  O   O14       1.0  0.19977499967885934  0.0348409997017753  0.9444560002810553  1.0000
  O   O15       1.0  0.5111739998541444  0.20380500100963805  0.11947999939773848  1.0000
  O   O16       1.0  0.3002250003211407  0.5348409997017752  0.9444560002810553  1.0000
