data_image0
_chemical_formula_structural       Li8Zr6O16
_chemical_formula_sum              "Li8 Zr6 O16"
_cell_length_a       6.207555
_cell_length_b       5.465288
_cell_length_c       10.198133642671339
_cell_angle_alpha    80.25645799134877
_cell_angle_beta     90.0
_cell_angle_gamma    90.0

_space_group_name_H-M_alt    "P 1"
_space_group_IT_number       1

loop_
  _space_group_symop_operation_xyz
  'x, y, z'

loop_
  _atom_site_type_symbol
  _atom_site_label
  _atom_site_symmetry_multiplicity
  _atom_site_fract_x
  _atom_site_fract_y
  _atom_site_fract_z
  _atom_site_occupancy
  Li  Li1       1.0  0.6273449997623863  0.7433310009948506  0.9923699996030256  1.0000
  Li  Li2       1.0  0.37265500023761366  0.25666899900514956  0.007630000396974358  1.0000
  Li  Li3       1.0  0.6273449997623863  0.2566689990051495  0.5076300003969744  1.0000
  Li  Li4       1.0  0.37265500023761366  0.7433310009948506  0.49236999960302563  1.0000
  Li  Li5       1.0  0.14252800015465028  0.49999999999999994  0.75  1.0000
  Li  Li6       1.0  0.8770829996673409  0.0  0.75  1.0000
  Li  Li7       1.0  0.12291700033265915  1.0157040439819059e-17  0.24999999999999997  1.0000
  Li  Li8       1.0  0.8574719998453498  0.5  0.24999999999999997  1.0000
  Zr  Zr1       1.0  0.13871300052919386  0.7346670003733322  0.019900000268629266  1.0000
  Zr  Zr2       1.0  0.3968859993991193  0.0  0.75  1.0000
  Zr  Zr3       1.0  0.8612869994708061  0.26533299962666773  0.9800999997313707  1.0000
  Zr  Zr4       1.0  0.6031140006008807  1.0157040439819059e-17  0.24999999999999997  1.0000
  Zr  Zr5       1.0  0.13871300052919386  0.2653329996266676  0.48009999973137074  1.0000
  Zr  Zr6       1.0  0.8612869994708061  0.7346670003733322  0.5199000002686293  1.0000
  O   O1        1.0  0.626840999395092  0.8983529994602549  0.6245879998133524  1.0000
  O   O2        1.0  0.626840999395092  0.10164700053974504  0.8754120001866476  1.0000
  O   O3        1.0  0.12434699974466598  0.10910299938835955  0.878511999818526  1.0000
  O   O4        1.0  0.8756530002553341  0.8908970006116405  0.121488000181474  1.0000
  O   O5        1.0  0.1045929999814742  0.37759900040071415  0.11077999989453814  1.0000
  O   O6        1.0  0.3582380003076896  0.6582600007701599  0.8794230002565907  1.0000
  O   O7        1.0  0.12434699974466598  0.8908970006116405  0.621488000181474  1.0000
  O   O8        1.0  0.8954070000185258  0.6224009995992859  0.8892200001054618  1.0000
  O   O9        1.0  0.3582380003076896  0.34173999922984005  0.6205769997434093  1.0000
  O   O10       1.0  0.6417619996923104  0.6582600007701599  0.3794230002565907  1.0000
  O   O11       1.0  0.6417619996923104  0.34173999922984005  0.12057699974340931  1.0000
  O   O12       1.0  0.8756530002553341  0.10910299938835956  0.378511999818526  1.0000
  O   O13       1.0  0.3731590006049081  0.898352999460255  0.1245879998133524  1.0000
  O   O14       1.0  0.1045929999814742  0.6224009995992859  0.38922000010546187  1.0000
  O   O15       1.0  0.3731590006049081  0.101647000539745  0.3754120001866476  1.0000
  O   O16       1.0  0.8954070000185258  0.37759900040071415  0.6107799998945381  1.0000
