data_image0
_chemical_formula_structural       Zr2O4
_chemical_formula_sum              "Zr2 O4"
_cell_length_a       4.934397
_cell_length_b       4.934397
_cell_length_c       3.283376
_cell_angle_alpha    90.0
_cell_angle_beta     90.0
_cell_angle_gamma    90.0

_space_group_name_H-M_alt    "P 1"
_space_group_IT_number       1

loop_
  _space_group_symop_operation_xyz
  'x, y, z'

loop_
  _atom_site_type_symbol
  _atom_site_label
  _atom_site_symmetry_multiplicity
  _atom_site_fract_x
  _atom_site_fract_y
  _atom_site_fract_z
  _atom_site_occupancy
  Zr  Zr1       1.0  0.0  0.5  0.24913200011207975  1.0000
  Zr  Zr2       1.0  0.5  0.0  0.7508679998879202  1.0000
  O   O1        1.0  0.6946489996650047  0.8053510003349954  0.2508910006042561  1.0000
  O   O2        1.0  0.8053510003349954  0.30535100033499535  0.7491089993957438  1.0000
  O   O3        1.0  0.19464899966500465  0.6946489996650047  0.7491089993957438  1.0000
  O   O4        1.0  0.30535100033499535  0.19464899966500465  0.2508910006042561  1.0000
