data_image0
_chemical_formula_structural       Li4Zr8O16
_chemical_formula_sum              "Li4 Zr8 O16"
_cell_length_a       5.166341820175439
_cell_length_b       10.866713470184319
_cell_length_c       6.103818240183542
_cell_angle_alpha    89.99958855238023
_cell_angle_beta     89.99921190500278
_cell_angle_gamma    90.0005225917994

_space_group_name_H-M_alt    "P 1"
_space_group_IT_number       1

loop_
  _space_group_symop_operation_xyz
  'x, y, z'

loop_
  _atom_site_type_symbol
  _atom_site_label
  _atom_site_symmetry_multiplicity
  _atom_site_fract_x
  _atom_site_fract_y
  _atom_site_fract_z
  _atom_site_occupancy
  Li  Li1       1.0  0.05868742033957358  0.6023510298100813  0.2500000594563395  1.0000
  Li  Li2       1.0  0.44130220925798286  0.10234807962536462  0.2499979994034999  1.0000
  Li  Li3       1.0  0.5587015303715013  0.8976536697672924  0.7499992105066579  1.0000
  Li  Li4       1.0  0.9413142501006877  0.3976486297081408  0.7499979794685486  1.0000
  Zr  Zr1       1.0  2.8801385976591732e-06  4.895629695106823e-07  5.809458462308917e-06  1.0000
  Zr  Zr2       1.0  4.897217176289936e-07  0.9999969995643626  0.49999478033276384  1.0000
  Zr  Zr3       1.0  0.021915299066203948  0.7207367603141835  0.7500001196860829  1.0000
  Zr  Zr4       1.0  0.47806825942828085  0.22073947010358744  0.7499929606884004  1.0000
  Zr  Zr5       1.0  0.5000018997891884  0.4999990599778166  0.9999998304289702  1.0000
  Zr  Zr6       1.0  0.4999935593470145  0.49999921964168403  0.499989900626423  1.0000
  Zr  Zr7       1.0  0.5219246795179681  0.779261789697447  0.25000418047837536  1.0000
  Zr  Zr8       1.0  0.9780862203156413  0.2792605801807219  0.2500051606235095  1.0000
  O   O1        1.0  0.21515978977941827  0.43590858018807355  0.2500059604244021  1.0000
  O   O2        1.0  0.2699602509334112  0.6708138496610864  0.012679140571977877  1.0000
  O   O3        1.0  0.269953270002733  0.6708105698553484  0.48732685065455617  1.0000
  O   O4        1.0  0.29665989981405305  0.39505087982817727  0.7499989503593669  1.0000
  O   O5        1.0  0.20331249010149102  0.8950459403744122  0.7500308905022306  1.0000
  O   O6        1.0  0.23001504926381502  0.1708034700452678  0.012688129971186839  1.0000
  O   O7        1.0  0.23002908937340297  0.17081392954685945  0.4873073593098685  1.0000
  O   O8        1.0  0.284827759631589  0.935909350429772  0.24997919925186018  1.0000
  O   O9        1.0  0.7151718300248132  0.06409069006105339  0.7500202601050744  1.0000
  O   O10       1.0  0.7699873509010319  0.8291970995914562  0.9873108296787731  1.0000
  O   O11       1.0  0.769977439416051  0.8291846100455484  0.5126919099713108  1.0000
  O   O12       1.0  0.7966840199253639  0.1049557804465324  0.2499805400571293  1.0000
  O   O13       1.0  0.7033352999255377  0.6049506597319619  0.24999777957444522  1.0000
  O   O14       1.0  0.7300500599712701  0.3291863399140639  0.9873292295373919  1.0000
  O   O15       1.0  0.730042669134696  0.32919027032370074  0.5126694795296519  1.0000
  O   O16       1.0  0.7848350208578037  0.5640922102851782  0.7499954993427668  1.0000
