data_image0
_chemical_formula_structural       Li16Zr2O12
_chemical_formula_sum              "Li16 Zr2 O12"
_cell_length_a       5.749666910032545
_cell_length_b       5.749652801128364
_cell_length_c       10.905890600064977
_cell_angle_alpha    89.99986685526115
_cell_angle_beta     90.00037944726579
_cell_angle_gamma    119.99997117545452

_space_group_name_H-M_alt    "P 1"
_space_group_IT_number       1

loop_
  _space_group_symop_operation_xyz
  'x, y, z'

loop_
  _atom_site_type_symbol
  _atom_site_label
  _atom_site_symmetry_multiplicity
  _atom_site_fract_x
  _atom_site_fract_y
  _atom_site_fract_z
  _atom_site_occupancy
  Li  Li1       1.0  0.9999829802865643  0.6760229499860582  0.7682948002991344  1.0000
  Li  Li2       1.0  1.3606321021896667e-06  0.5906889508625146  0.12726790970468174  1.0000
  Li  Li3       1.0  0.9999774694193758  0.40931894940106783  0.6272661995550061  1.0000
  Li  Li4       1.0  1.629995043256203e-06  0.3239766496267733  0.268295099999076  1.0000
  Li  Li5       1.0  0.3333396996672033  0.666686129549406  0.40699728976329036  1.0000
  Li  Li6       1.0  0.33331753056384283  0.6666556807850875  0.9069978298193089  1.0000
  Li  Li7       1.0  0.3239359302881285  0.32393356093974396  0.7682951301908948  1.0000
  Li  Li8       1.0  0.4093344403201849  0.4093548994351862  0.12726021043679722  1.0000
  Li  Li9       1.0  0.5906376207378834  0.590638360333535  0.6272592296836355  1.0000
  Li  Li10      1.0  0.3239600505565196  2.1839639666038974e-05  0.2682944095655303  1.0000
  Li  Li11      1.0  0.6760457002531327  0.6760648899281548  0.2682928903848461  1.0000
  Li  Li12      1.0  0.4093132194023731  0.9999778594040324  0.6272635801892141  1.0000
  Li  Li13      1.0  0.6666576988582986  0.3333162991237956  0.9069975498636119  1.0000
  Li  Li14      1.0  0.6666648091671626  0.3333467398713287  0.40699686032147203  1.0000
  Li  Li15      1.0  0.5906564893850421  2.2449495229202784e-05  0.12726084988677036  1.0000
  Li  Li16      1.0  0.6760205097615108  0.9999800293521971  0.7682950203364096  1.0000
  Zr  Zr1       1.0  0.9999847606851362  0.9999805202709312  0.9945977002416694  1.0000
  Zr  Zr2       1.0  0.9999941913021407  1.1910944729766598e-05  0.49460035018257037  1.0000
  O   O1        1.0  0.9999854110436622  0.6659411909891693  0.948522940244938  1.0000
  O   O2        1.0  0.9999982310005553  0.33407458060737094  0.4485225600639834  1.0000
  O   O3        1.0  0.33334127007673475  0.6666827601923195  0.2127655403682987  1.0000
  O   O4        1.0  2.439729951073926e-06  0.9999612491870424  0.17925437013862258  1.0000
  O   O5        1.0  3.625013713255842e-05  3.783053341810665e-05  0.6792633001856914  1.0000
  O   O6        1.0  0.33332375055218705  0.6666568903373724  0.7127647196969052  1.0000
  O   O7        1.0  0.3340308098245566  0.33403025974929657  0.9485279302443844  1.0000
  O   O8        1.0  0.3340519698253095  1.713973174061965e-05  0.44852411013087895  1.0000
  O   O9        1.0  0.665931481059688  0.6659533108528155  0.4485252200421293  1.0000
  O   O10       1.0  0.6666567400194967  0.3333172596561182  0.712765110009118  1.0000
  O   O11       1.0  0.6666686604910778  0.33334677055644873  0.21276400968855239  1.0000
  O   O12       1.0  0.6659478999786829  0.9999840897789192  0.9485272897785776  1.0000
