data_image0
_chemical_formula_structural       Li12Zr4O12
_chemical_formula_sum              "Li12 Zr4 O12"
_cell_length_a       9.64391588
_cell_length_b       9.64391588
_cell_length_c       3.49961367
_cell_angle_alpha    90.0
_cell_angle_beta     90.0
_cell_angle_gamma    90.0

_space_group_name_H-M_alt    "P 1"
_space_group_IT_number       1

loop_
  _space_group_symop_operation_xyz
  'x, y, z'

loop_
  _atom_site_type_symbol
  _atom_site_label
  _atom_site_symmetry_multiplicity
  _atom_site_fract_x
  _atom_site_fract_y
  _atom_site_fract_z
  _atom_site_occupancy
  Li  Li1       1.0  0.08614132996771846  0.35422019981368813  0.5000000014287291  1.0000
  Li  Li2       1.0  0.14577980018631187  0.5861413299677185  0.0  1.0000
  Li  Li3       1.0  0.17337283949847146  0.17337283949847146  0.0  1.0000
  Li  Li4       1.0  0.32662716050152857  0.6733728394984715  0.5000000014287291  1.0000
  Li  Li5       1.0  0.35422019981368813  0.08614132996771846  0.5000000014287291  1.0000
  Li  Li6       1.0  0.41385867003228155  0.8542201998136882  0.0  1.0000
  Li  Li7       1.0  0.5861413299677185  0.14577980018631187  0.0  1.0000
  Li  Li8       1.0  0.6457798001863119  0.9138586700322815  0.5000000014287291  1.0000
  Li  Li9       1.0  0.6733728394984715  0.32662716050152857  0.5000000014287291  1.0000
  Li  Li10      1.0  0.8266271605015285  0.8266271605015285  0.0  1.0000
  Li  Li11      1.0  0.8542201998136882  0.41385867003228155  0.0  1.0000
  Li  Li12      1.0  0.9138586700322815  0.6457798001863119  0.5000000014287291  1.0000
  Zr  Zr1       1.0  0.11935239007912209  0.8806476099208779  0.5000000014287291  1.0000
  Zr  Zr2       1.0  0.3806476099208779  0.3806476099208779  0.0  1.0000
  Zr  Zr3       1.0  0.619352390079122  0.619352390079122  0.0  1.0000
  Zr  Zr4       1.0  0.8806476099208779  0.11935239007912209  0.5000000014287291  1.0000
  O   O1        1.0  0.10550002951705548  0.10550002951705548  0.5000000014287291  1.0000
  O   O2        1.0  0.11571109017180685  0.6707651498096642  0.5000000014287291  1.0000
  O   O3        1.0  0.17076514980966423  0.38428890982819314  0.0  1.0000
  O   O4        1.0  0.32923485019033577  0.8842889098281932  0.5000000014287291  1.0000
  O   O5        1.0  0.38428890982819314  0.17076514980966423  0.0  1.0000
  O   O6        1.0  0.39449997048294455  0.6055000295170554  0.0  1.0000
  O   O7        1.0  0.6055000295170554  0.39449997048294455  0.0  1.0000
  O   O8        1.0  0.6157110901718068  0.8292348501903357  0.0  1.0000
  O   O9        1.0  0.6707651498096642  0.11571109017180685  0.5000000014287291  1.0000
  O   O10       1.0  0.8292348501903357  0.6157110901718068  0.0  1.0000
  O   O11       1.0  0.8842889098281932  0.32923485019033577  0.5000000014287291  1.0000
  O   O12       1.0  0.8944999704829445  0.8944999704829445  0.5000000014287291  1.0000
