data_image0
_chemical_formula_structural       Zr4O8
_chemical_formula_sum              "Zr4 O8"
_cell_length_a       6.998571590926609
_cell_length_b       6.998571590926609
_cell_length_c       7.129989264950404
_cell_angle_alpha    74.2552033068762
_cell_angle_beta     74.2552033068762
_cell_angle_gamma    33.54103626813831

_space_group_name_H-M_alt    "P 1"
_space_group_IT_number       1

loop_
  _space_group_symop_operation_xyz
  'x, y, z'

loop_
  _atom_site_type_symbol
  _atom_site_label
  _atom_site_symmetry_multiplicity
  _atom_site_fract_x
  _atom_site_fract_y
  _atom_site_fract_z
  _atom_site_occupancy
  Zr  Zr1       1.0  0.1009210002811644  0.10092100028116437  0.28965399995144536  1.0000
  Zr  Zr2       1.0  0.1958800003763126  0.19588000037631273  0.7133079996103929  1.0000
  Zr  Zr3       1.0  0.8041199996236871  0.8041199996236873  0.28669200038960707  1.0000
  Zr  Zr4       1.0  0.8990789997188355  0.8990789997188355  0.7103460000485547  1.0000
  O   O1        1.0  0.061092999718902606  0.061092999718902634  0.6239059996858574  1.0000
  O   O2        1.0  0.6426920000440014  0.6426920000440016  0.29400499995758783  1.0000
  O   O3        1.0  0.133774000258902  0.13377400025890193  0.996445000612783  1.0000
  O   O4        1.0  0.26059599998226385  0.260595999982264  0.3529459999315555  1.0000
  O   O5        1.0  0.7394040000177359  0.7394040000177361  0.6470540000684445  1.0000
  O   O6        1.0  0.8662259997410979  0.866225999741098  0.003554999387217085  1.0000
  O   O7        1.0  0.35730799995599827  0.3573079999559984  0.7059950000424122  1.0000
  O   O8        1.0  0.9389070002810975  0.9389070002810973  0.37609400031414264  1.0000
