data_image0
_chemical_formula_structural       Zr8O16
_chemical_formula_sum              "Zr8 O16"
_cell_length_a       5.665348
_cell_length_b       5.865006
_cell_length_c       10.050582
_cell_angle_alpha    90.0
_cell_angle_beta     90.0
_cell_angle_gamma    90.0

_space_group_name_H-M_alt    "P 1"
_space_group_IT_number       1

loop_
  _space_group_symop_operation_xyz
  'x, y, z'

loop_
  _atom_site_type_symbol
  _atom_site_label
  _atom_site_symmetry_multiplicity
  _atom_site_fract_x
  _atom_site_fract_y
  _atom_site_fract_z
  _atom_site_occupancy
  Zr  Zr1       1.0  0.857361999651213  0.09866300051525949  0.13001799995263955  1.0000
  Zr  Zr2       1.0  0.357361999651213  0.40133699948474055  0.13001799995263955  1.0000
  Zr  Zr3       1.0  0.857361999651213  0.5986630005152594  0.3699820000473604  1.0000
  Zr  Zr4       1.0  0.357361999651213  0.9013369994847404  0.3699820000473604  1.0000
  Zr  Zr5       1.0  0.6426380003487872  0.09866300051525949  0.6300179999526395  1.0000
  Zr  Zr6       1.0  0.14263800034878704  0.40133699948474055  0.6300179999526395  1.0000
  Zr  Zr7       1.0  0.6426380003487872  0.5986630005152594  0.8699820000473604  1.0000
  Zr  Zr8       1.0  0.14263800034878704  0.9013369994847404  0.8699820000473604  1.0000
  O   O1        1.0  0.17436499929042312  0.15028500056095423  0.01496899980518541  1.0000
  O   O2        1.0  0.6743649992904232  0.3497149994390457  0.01496899980518541  1.0000
  O   O3        1.0  0.5293519992064035  0.11857399975379393  0.23109099950629725  1.0000
  O   O4        1.0  0.029351999206403565  0.38142600024620604  0.23109099950629725  1.0000
  O   O5        1.0  0.5293519992064035  0.618573999753794  0.26890900049370275  1.0000
  O   O6        1.0  0.029351999206403565  0.881426000246206  0.26890900049370275  1.0000
  O   O7        1.0  0.6743649992904232  0.8497149994390458  0.48503100019481454  1.0000
  O   O8        1.0  0.17436499929042312  0.6502850005609542  0.48503100019481454  1.0000
  O   O9        1.0  0.3256350007095769  0.15028500056095423  0.5149689998051854  1.0000
  O   O10       1.0  0.8256350007095768  0.3497149994390457  0.5149689998051854  1.0000
  O   O11       1.0  0.9706480007935965  0.11857399975379393  0.7310909995062972  1.0000
  O   O12       1.0  0.4706480007935965  0.38142600024620604  0.7310909995062972  1.0000
  O   O13       1.0  0.9706480007935965  0.618573999753794  0.7689090004937027  1.0000
  O   O14       1.0  0.4706480007935965  0.881426000246206  0.7689090004937027  1.0000
  O   O15       1.0  0.3256350007095769  0.6502850005609542  0.9850310001948145  1.0000
  O   O16       1.0  0.8256350007095768  0.8497149994390458  0.9850310001948145  1.0000
