data_image0
_chemical_formula_structural       Li8O4
_chemical_formula_sum              "Li8 O4"
_cell_length_a       3.140428
_cell_length_b       5.151795
_cell_length_c       5.933408
_cell_angle_alpha    90.0
_cell_angle_beta     90.0
_cell_angle_gamma    90.0

_space_group_name_H-M_alt    "P 1"
_space_group_IT_number       1

loop_
  _space_group_symop_operation_xyz
  'x, y, z'

loop_
  _atom_site_type_symbol
  _atom_site_label
  _atom_site_symmetry_multiplicity
  _atom_site_fract_x
  _atom_site_fract_y
  _atom_site_fract_z
  _atom_site_occupancy
  Li  Li1       1.0  0.24999999999999997  0.0122450000436741  0.15906100001887616  1.0000
  Li  Li2       1.0  0.24999999999999997  0.14108699977386524  0.5792079998543838  1.0000
  Li  Li3       1.0  0.75  0.3589130002261348  0.07920799985438384  1.0000
  Li  Li4       1.0  0.75  0.487754999956326  0.6590610000188761  1.0000
  Li  Li5       1.0  0.24999999999999997  0.5122450000436741  0.3409389999811238  1.0000
  Li  Li6       1.0  0.24999999999999997  0.6410869997738652  0.9207920001456161  1.0000
  Li  Li7       1.0  0.75  0.8589130002261348  0.42079200014561613  1.0000
  Li  Li8       1.0  0.75  0.987754999956326  0.8409389999811239  1.0000
  O   O1        1.0  0.75  0.24606699994856163  0.3988239996305665  1.0000
  O   O2        1.0  0.24999999999999997  0.2539330000514384  0.8988239996305664  1.0000
  O   O3        1.0  0.75  0.7460669999485617  0.10117600036943356  1.0000
  O   O4        1.0  0.24999999999999997  0.7539330000514385  0.6011760003694335  1.0000
