data_image0
_chemical_formula_structural       Zr6O11
_chemical_formula_sum              "Zr6 O11"
_cell_length_a       3.633882
_cell_length_b       3.637053
_cell_length_c       15.778373
_cell_angle_alpha    90.0
_cell_angle_beta     90.0
_cell_angle_gamma    90.0

_space_group_name_H-M_alt    "P 1"
_space_group_IT_number       1

loop_
  _space_group_symop_operation_xyz
  'x, y, z'

loop_
  _atom_site_type_symbol
  _atom_site_label
  _atom_site_symmetry_multiplicity
  _atom_site_fract_x
  _atom_site_fract_y
  _atom_site_fract_z
  _atom_site_occupancy
  Zr  Zr1       1.0  0.5  0.0  0.07566100002832991  1.0000
  Zr  Zr2       1.0  0.5  0.0  0.4108959998600616  1.0000
  Zr  Zr3       1.0  0.5  0.0  0.7454549997011732  1.0000
  Zr  Zr4       1.0  0.0  0.49999999999999994  0.24314300023202642  1.0000
  Zr  Zr5       1.0  0.0  0.49999999999999994  0.5786709998553082  1.0000
  Zr  Zr6       1.0  0.0  0.49999999999999994  0.91096899978217  1.0000
  O   O1        1.0  0.5  0.49999999999999994  0.13797499970370833  1.0000
  O   O2        1.0  0.5  0.49999999999999994  0.6446860002612437  1.0000
  O   O3        1.0  0.5  0.49999999999999994  0.4769580000422096  1.0000
  O   O4        1.0  0.5  0.49999999999999994  0.8124910001810706  1.0000
  O   O5        1.0  0.5  0.49999999999999994  0.3083310002875455  1.0000
  O   O6        1.0  0.0  0.0  0.6782109999554452  1.0000
  O   O7        1.0  0.0  0.0  0.0089270002680251  1.0000
  O   O8        1.0  0.0  0.0  0.17741199995715654  1.0000
  O   O9        1.0  0.0  0.0  0.34458600009012336  1.0000
  O   O10       1.0  0.0  0.0  0.5113069997774802  1.0000
  O   O11       1.0  0.0  0.0  0.8445099998586673  1.0000
