data_image0
_chemical_formula_structural       Li40La8O32
_chemical_formula_sum              "Li40 La8 O32"
_cell_length_a       9.086402
_cell_length_b       9.534641
_cell_length_c       10.034085
_cell_angle_alpha    90.0
_cell_angle_beta     90.0
_cell_angle_gamma    90.0

_space_group_name_H-M_alt    "P 1"
_space_group_IT_number       1

loop_
  _space_group_symop_operation_xyz
  'x, y, z'

loop_
  _atom_site_type_symbol
  _atom_site_label
  _atom_site_symmetry_multiplicity
  _atom_site_fract_x
  _atom_site_fract_y
  _atom_site_fract_z
  _atom_site_occupancy
  Li  Li1       1.0  0.12695500045012317  0.5685349999019366  0.13094200019234442  1.0000
  Li  Li2       1.0  0.12695500045012317  0.9314650000980634  0.6309420001923445  1.0000
  Li  Li3       1.0  0.12532499992846452  0.13288799966354264  0.8638049996586635  1.0000
  Li  Li4       1.0  0.12532499992846452  0.3671120003364573  0.3638049996586635  1.0000
  Li  Li5       1.0  0.1288539996359395  0.8771570004575944  0.40592999959637577  1.0000
  Li  Li6       1.0  0.1288539996359395  0.6228429995424054  0.9059299995963758  1.0000
  Li  Li7       1.0  0.13664600025400594  0.8486360000339812  0.14442899975433734  1.0000
  Li  Li8       1.0  0.13664600025400594  0.6513639999660186  0.6444289997543374  1.0000
  Li  Li9       1.0  0.186758999876959  0.12436500021343225  0.42448400028502853  1.0000
  Li  Li10      1.0  0.186758999876959  0.3756349997865677  0.9244840002850285  1.0000
  Li  Li11      1.0  0.31324100012304096  0.8756349997865677  0.9244840002850285  1.0000
  Li  Li12      1.0  0.31324100012304096  0.6243650002134322  0.42448400028502853  1.0000
  Li  Li13      1.0  0.3633539997459941  0.15136399996601863  0.6444289997543374  1.0000
  Li  Li14      1.0  0.3633539997459941  0.3486360000339813  0.14442899975433734  1.0000
  Li  Li15      1.0  0.3711460003640605  0.12284299954240542  0.9059299995963758  1.0000
  Li  Li16      1.0  0.3711460003640605  0.37715700045759454  0.40592999959637577  1.0000
  Li  Li17      1.0  0.3746750000715355  0.6328879996635426  0.8638049996586635  1.0000
  Li  Li18      1.0  0.3746750000715355  0.8671120003364572  0.3638049996586635  1.0000
  Li  Li19      1.0  0.37304499954987685  0.06853499990193652  0.13094200019234442  1.0000
  Li  Li20      1.0  0.37304499954987685  0.43146500009806343  0.6309420001923445  1.0000
  Li  Li21      1.0  0.6269550004501231  0.5685349999019366  0.36905799980765563  1.0000
  Li  Li22      1.0  0.6269550004501231  0.9314650000980634  0.8690579998076556  1.0000
  Li  Li23      1.0  0.6253249999284645  0.13288799966354264  0.6361950003413366  1.0000
  Li  Li24      1.0  0.6253249999284645  0.3671120003364573  0.13619500034133658  1.0000
  Li  Li25      1.0  0.6288539996359395  0.6228429995424054  0.5940700004036243  1.0000
  Li  Li26      1.0  0.6288539996359395  0.8771570004575944  0.09407000040362426  1.0000
  Li  Li27      1.0  0.6366460002540059  0.6513639999660186  0.8555710002456627  1.0000
  Li  Li28      1.0  0.6366460002540059  0.8486360000339812  0.3555710002456627  1.0000
  Li  Li29      1.0  0.686758999876959  0.12436500021343225  0.07551599971497153  1.0000
  Li  Li30      1.0  0.686758999876959  0.3756349997865677  0.5755159997149716  1.0000
  Li  Li31      1.0  0.813241000123041  0.6243650002134322  0.07551599971497153  1.0000
  Li  Li32      1.0  0.813241000123041  0.8756349997865677  0.5755159997149716  1.0000
  Li  Li33      1.0  0.863353999745994  0.3486360000339813  0.3555710002456627  1.0000
  Li  Li34      1.0  0.863353999745994  0.15136399996601863  0.8555710002456627  1.0000
  Li  Li35      1.0  0.8711460003640605  0.12284299954240542  0.5940700004036243  1.0000
  Li  Li36      1.0  0.8711460003640605  0.37715700045759454  0.09407000040362426  1.0000
  Li  Li37      1.0  0.8746750000715355  0.6328879996635426  0.6361950003413366  1.0000
  Li  Li38      1.0  0.8746750000715355  0.8671120003364572  0.13619500034133658  1.0000
  Li  Li39      1.0  0.8730449995498769  0.06853499990193652  0.36905799980765563  1.0000
  Li  Li40      1.0  0.8730449995498769  0.43146500009806343  0.8690579998076556  1.0000
  La  La1       1.0  0.05181300034931318  0.15932700035586025  0.1556459996103282  1.0000
  La  La2       1.0  0.05181300034931318  0.3406729996441397  0.6556459996103282  1.0000
  La  La3       1.0  0.44818699965068687  0.6593270003558602  0.1556459996103282  1.0000
  La  La4       1.0  0.44818699965068687  0.8406729996441397  0.6556459996103282  1.0000
  La  La5       1.0  0.5518130003493132  0.15932700035586025  0.34435400038967184  1.0000
  La  La6       1.0  0.5518130003493132  0.3406729996441397  0.8443540003896719  1.0000
  La  La7       1.0  0.9481869996506868  0.6593270003558602  0.34435400038967184  1.0000
  La  La8       1.0  0.9481869996506868  0.8406729996441397  0.8443540003896719  1.0000
  O   O1        1.0  0.9980009997356488  0.2194410004529798  0.45491000026409983  1.0000
  O   O2        1.0  0.9980009997356488  0.2805589995470202  0.9549100002640999  1.0000
  O   O3        1.0  0.0021509999227416966  0.9487150003864855  0.266415000470895  1.0000
  O   O4        1.0  0.0021509999227416966  0.5512849996135145  0.766415000470895  1.0000
  O   O5        1.0  0.2112669998531872  0.022611000246364806  0.01259900030745205  1.0000
  O   O6        1.0  0.2112669998531872  0.4773889997536352  0.5125990003074521  1.0000
  O   O7        1.0  0.2721749995212627  0.2244080002592651  0.2782159997648017  1.0000
  O   O8        1.0  0.2721749995212627  0.27559199974073484  0.7782159997648017  1.0000
  O   O9        1.0  0.22782500047873733  0.7244080002592651  0.2782159997648017  1.0000
  O   O10       1.0  0.22782500047873733  0.7755919997407348  0.7782159997648017  1.0000
  O   O11       1.0  0.2887330001468128  0.5226110002463648  0.01259900030745205  1.0000
  O   O12       1.0  0.2887330001468128  0.977388999753635  0.5125990003074521  1.0000
  O   O13       1.0  0.4978490000772583  0.44871500038648543  0.266415000470895  1.0000
  O   O14       1.0  0.4978490000772583  0.05128499961351455  0.766415000470895  1.0000
  O   O15       1.0  0.5019990002643511  0.7194410004529798  0.45491000026409983  1.0000
  O   O16       1.0  0.5019990002643511  0.7805589995470201  0.9549100002640999  1.0000
  O   O17       1.0  0.498000999735649  0.2194410004529798  0.04508999973590019  1.0000
  O   O18       1.0  0.498000999735649  0.2805589995470202  0.5450899997359002  1.0000
  O   O19       1.0  0.5021509999227417  0.9487150003864855  0.23358499952910505  1.0000
  O   O20       1.0  0.5021509999227417  0.5512849996135145  0.733584999529105  1.0000
  O   O21       1.0  0.7112669998531872  0.022611000246364806  0.487400999692548  1.0000
  O   O22       1.0  0.7112669998531872  0.4773889997536352  0.987400999692548  1.0000
  O   O23       1.0  0.7721749995212627  0.2244080002592651  0.22178400023519834  1.0000
  O   O24       1.0  0.7721749995212627  0.27559199974073484  0.7217840002351984  1.0000
  O   O25       1.0  0.7278250004787373  0.7244080002592651  0.22178400023519834  1.0000
  O   O26       1.0  0.7278250004787373  0.7755919997407348  0.7217840002351984  1.0000
  O   O27       1.0  0.7887330001468128  0.977388999753635  0.987400999692548  1.0000
  O   O28       1.0  0.7887330001468128  0.5226110002463648  0.487400999692548  1.0000
  O   O29       1.0  0.9978490000772583  0.05128499961351455  0.733584999529105  1.0000
  O   O30       1.0  0.9978490000772583  0.44871500038648543  0.23358499952910505  1.0000
  O   O31       1.0  0.00199900026435106  0.7194410004529798  0.04508999973590019  1.0000
  O   O32       1.0  0.00199900026435106  0.7805589995470201  0.5450899997359002  1.0000
