data_image0
_chemical_formula_structural       La2O6
_chemical_formula_sum              "La2 O6"
_cell_length_a       4.45427939
_cell_length_b       5.806404785914852
_cell_length_c       5.85080317785469
_cell_angle_alpha    120.03013028856236
_cell_angle_beta     90.0
_cell_angle_gamma    90.0

_space_group_name_H-M_alt    "P 1"
_space_group_IT_number       1

loop_
  _space_group_symop_operation_xyz
  'x, y, z'

loop_
  _atom_site_type_symbol
  _atom_site_label
  _atom_site_symmetry_multiplicity
  _atom_site_fract_x
  _atom_site_fract_y
  _atom_site_fract_z
  _atom_site_occupancy
  La  La1       1.0  0.749999999438742  0.6678725907106523  0.33470868029277456  1.0000
  La  La2       1.0  0.250000000561258  0.3321274092893475  0.6652913197072253  1.0000
  O   O1        1.0  0.749999999438742  0.13944475048847732  0.7049385509154055  1.0000
  O   O2        1.0  0.749999999438742  0.29579738029634517  0.43490408936740604  1.0000
  O   O3        1.0  0.749999999438742  0.5655686992095397  0.8610991497502503  1.0000
  O   O4        1.0  0.250000000561258  0.8605552495115224  0.2950614490845944  1.0000
  O   O5        1.0  0.250000000561258  0.7042026197036546  0.5650959106325939  1.0000
  O   O6        1.0  0.250000000561258  0.4344313007904602  0.1389008502497498  1.0000
