data_image0
_chemical_formula_structural       Li8Zr8O20
_chemical_formula_sum              "Li8 Zr8 O20"
_cell_length_a       10.374991772977978
_cell_length_b       3.93065625
_cell_length_c       11.382859535620787
_cell_angle_alpha    90.0
_cell_angle_beta     105.84195589464863
_cell_angle_gamma    90.0

_space_group_name_H-M_alt    "P 1"
_space_group_IT_number       1

loop_
  _space_group_symop_operation_xyz
  'x, y, z'

loop_
  _atom_site_type_symbol
  _atom_site_label
  _atom_site_symmetry_multiplicity
  _atom_site_fract_x
  _atom_site_fract_y
  _atom_site_fract_z
  _atom_site_occupancy
  Li  Li1       1.0  0.09348091978095276  0.2595654606021577  0.047648239859695504  1.0000
  Li  Li2       1.0  0.25424246996933825  0.29676229001200505  0.329943310226138  1.0000
  Li  Li3       1.0  0.24575753018071964  0.7967622887399527  0.17005669023028588  1.0000
  Li  Li4       1.0  0.40651908006898935  0.7595654593301054  0.4523517596838806  1.0000
  Li  Li5       1.0  0.5934809199310107  0.2404345406698945  0.5476482403161194  1.0000
  Li  Li6       1.0  0.7542424698192802  0.20323771126004722  0.829943309769714  1.0000
  Li  Li7       1.0  0.7457575300306617  0.7032377099879951  0.6700566897738619  1.0000
  Li  Li8       1.0  0.9065190802190471  0.7404345393978423  0.9523517601403045  1.0000
  Zr  Zr1       1.0  0.18615604032392924  0.6847664992327934  0.8553756501529114  1.0000
  Zr  Zr2       1.0  0.0336564797837556  0.8610042305276632  0.3643209895725715  1.0000
  Zr  Zr3       1.0  0.31384395982612867  0.18476650050484575  0.6446243503035125  1.0000
  Zr  Zr4       1.0  0.5336564799338134  0.6389957707443891  0.8643209900289952  1.0000
  Zr  Zr5       1.0  0.46634352006618646  0.36100422925561093  0.1356790099710046  1.0000
  Zr  Zr6       1.0  0.6861560401738713  0.8152334994951543  0.3553756496964875  1.0000
  Zr  Zr7       1.0  0.9663435202162445  0.13899576947233686  0.6356790104274285  1.0000
  Zr  Zr8       1.0  0.8138439596760707  0.31523350076720646  0.14462434984708858  1.0000
  O   O1        1.0  0.10379247008146039  0.748155110231275  0.9890360502162224  1.0000
  O   O2        1.0  0.17195413018152716  0.17622524991850916  0.7856524400430325  1.0000
  O   O3        1.0  0.00010270972108131897  0.33963051080846873  0.2912126399340334  1.0000
  O   O4        1.0  0.11865920043286325  0.1335066504480009  0.5321592202325558  1.0000
  O   O5        1.0  0.38134079971719453  0.6335066491759487  0.9678407802238679  1.0000
  O   O6        1.0  0.2148485504086646  0.7986011292643562  0.33893120013892597  1.0000
  O   O7        1.0  0.3280458699685307  0.6762252511905613  0.7143475604133913  1.0000
  O   O8        1.0  0.39620753006859744  0.24815510895922277  0.5109639502402014  1.0000
  O   O9        1.0  0.2851514497413933  0.2986011305364085  0.1610688003174979  1.0000
  O   O10       1.0  0.5001027098711393  0.16036949046358354  0.7912126403904574  1.0000
  O   O11       1.0  0.49989729012886075  0.8396305095364165  0.20878735960954262  1.0000
  O   O12       1.0  0.7148485502586067  0.7013988694635915  0.8389311996825022  1.0000
  O   O13       1.0  0.6037924699314025  0.7518448910407772  0.4890360497597986  1.0000
  O   O14       1.0  0.6719541300314692  0.32377474880943863  0.2856524395866085  1.0000
  O   O15       1.0  0.7851514495913353  0.20139887073564372  0.661068799861074  1.0000
  O   O16       1.0  0.6186592002828054  0.3664933508240513  0.032159219776131974  1.0000
  O   O17       1.0  0.8813407995671366  0.8664933495519991  0.467840779767444  1.0000
  O   O18       1.0  0.9998972902789186  0.6603694891915313  0.7087873600659664  1.0000
  O   O19       1.0  0.8280458698184727  0.8237747500814908  0.2143475599569675  1.0000
  O   O20       1.0  0.8962075299185396  0.251844889768725  0.01096394978377742  1.0000
