data_image0
_chemical_formula_structural       Li2Zr4O8
_chemical_formula_sum              "Li2 Zr4 O8"
_cell_length_a       6.4491006495466126
_cell_length_b       6.4491006495466126
_cell_length_c       6.4491006495466126
_cell_angle_alpha    120.02636775086044
_cell_angle_beta     120.02636775086044
_cell_angle_gamma    89.95433577987919

_space_group_name_H-M_alt    "P 1"
_space_group_IT_number       1

loop_
  _space_group_symop_operation_xyz
  'x, y, z'

loop_
  _atom_site_type_symbol
  _atom_site_label
  _atom_site_symmetry_multiplicity
  _atom_site_fract_x
  _atom_site_fract_y
  _atom_site_fract_z
  _atom_site_occupancy
  Li  Li1       1.0  0.3749999994519971  0.12500000022760813  0.250000000775611  1.0000
  Li  Li2       1.0  0.6249999994519974  0.874999998676386  0.7499999992243891  1.0000
  Zr  Zr1       1.0  0.5  0.5  1.0509199834382672e-18  1.0000
  Zr  Zr2       1.0  0.9999999992243889  0.999999999224389  0.4999999984487779  1.0000
  Zr  Zr3       1.0  7.756110753653899e-10  0.4999999992243889  0.0  1.0000
  Zr  Zr4       1.0  0.0  0.5  0.5  1.0000
  O   O1        1.0  0.7623168900084224  0.2872889393899284  0.02468849048447166  1.0000
  O   O2        1.0  0.7872889401655396  0.2626004496810678  0.5249720509327281  1.0000
  O   O3        1.0  0.2376283987483398  0.2623168892328114  0.975027949067272  1.0000
  O   O4        1.0  0.2373995510945433  0.26237160047604924  0.5246884904844717  1.0000
  O   O5        1.0  0.7626014508248408  0.7376284009050919  0.47531151106675357  1.0000
  O   O6        1.0  0.7623716012516601  0.7376831107671887  0.024972050932728022  1.0000
  O   O7        1.0  0.21271106000454487  0.7373985499507733  0.47502795061849706  1.0000
  O   O8        1.0  0.23768310999157785  0.7127110606100715  0.9753115095155285  1.0000
