data_image0
_chemical_formula_structural       Zr
_chemical_formula_sum              "Zr1"
_cell_length_a       3.2080005820479656
_cell_length_b       3.208000584159667
_cell_length_c       3.20800058
_cell_angle_alpha    60.00000004289297
_cell_angle_beta     60.00000002111787
_cell_angle_gamma    60.00000003585369

_space_group_name_H-M_alt    "P 1"
_space_group_IT_number       1

loop_
  _space_group_symop_operation_xyz
  'x, y, z'

loop_
  _atom_site_type_symbol
  _atom_site_label
  _atom_site_symmetry_multiplicity
  _atom_site_fract_x
  _atom_site_fract_y
  _atom_site_fract_z
  _atom_site_occupancy
  Zr  Zr1       1.0  0.0  0.0  0.0  1.0000
