data_image0
_chemical_formula_structural       La2O6
_chemical_formula_sum              "La2 O6"
_cell_length_a       4.661293
_cell_length_b       4.880032514301724
_cell_length_c       7.597157739292438
_cell_angle_alpha    107.75589212234566
_cell_angle_beta     91.50697545222872
_cell_angle_gamma    116.69352998534309

_space_group_name_H-M_alt    "P 1"
_space_group_IT_number       1

loop_
  _space_group_symop_operation_xyz
  'x, y, z'

loop_
  _atom_site_type_symbol
  _atom_site_label
  _atom_site_symmetry_multiplicity
  _atom_site_fract_x
  _atom_site_fract_y
  _atom_site_fract_z
  _atom_site_occupancy
  La  La1       1.0  0.11749299902541192  0.7552549993418356  0.2629290002451847  1.0000
  La  La2       1.0  0.8825070009745882  0.24474500065816432  0.7370709997548154  1.0000
  O   O1        1.0  0.30797299997214117  0.6830500005434845  0.04175199988846282  1.0000
  O   O2        1.0  0.6828640008112807  0.5837329994990531  0.6081989997987544  1.0000
  O   O3        1.0  0.5592450009216632  0.8076580009701066  0.34489800051290204  1.0000
  O   O4        1.0  0.3171359991887193  0.4162670005009468  0.39180100020124575  1.0000
  O   O5        1.0  0.6920270000278589  0.3169499994565155  0.9582480001115373  1.0000
  O   O6        1.0  0.44075499907833676  0.19234199902989318  0.6551019994870979  1.0000
