data_image0
_chemical_formula_structural       Li2La6
_chemical_formula_sum              "Li2 La6"
_cell_length_a       7.3752904327725295
_cell_length_b       7.3752904327725295
_cell_length_c       5.453433
_cell_angle_alpha    90.0
_cell_angle_beta     90.0
_cell_angle_gamma    120.00000388215219

_space_group_name_H-M_alt    "P 1"
_space_group_IT_number       1

loop_
  _space_group_symop_operation_xyz
  'x, y, z'

loop_
  _atom_site_type_symbol
  _atom_site_label
  _atom_site_symmetry_multiplicity
  _atom_site_fract_x
  _atom_site_fract_y
  _atom_site_fract_z
  _atom_site_occupancy
  Li  Li1       1.0  0.6666670001466999  0.33333299985330006  0.25  1.0000
  Li  Li2       1.0  0.33333299985330017  0.6666670001466999  0.75  1.0000
  La  La1       1.0  0.8249520000112727  0.17504799998872736  0.75  1.0000
  La  La2       1.0  0.35009500001362653  0.17504800046499877  0.75  1.0000
  La  La3       1.0  0.8249519995350014  0.6499049999863736  0.75  1.0000
  La  La4       1.0  0.17504800046499877  0.3500950000136265  0.25  1.0000
  La  La5       1.0  0.6499049999863736  0.8249519995350013  0.25  1.0000
  La  La6       1.0  0.1750479999887274  0.8249520000112726  0.25  1.0000
