data_image0
_chemical_formula_structural       LiLa3
_chemical_formula_sum              "Li1 La3"
_cell_length_a       5.116069
_cell_length_b       5.116069
_cell_length_c       5.116069
_cell_angle_alpha    90.0
_cell_angle_beta     90.0
_cell_angle_gamma    90.0

_space_group_name_H-M_alt    "P 1"
_space_group_IT_number       1

loop_
  _space_group_symop_operation_xyz
  'x, y, z'

loop_
  _atom_site_type_symbol
  _atom_site_label
  _atom_site_symmetry_multiplicity
  _atom_site_fract_x
  _atom_site_fract_y
  _atom_site_fract_z
  _atom_site_occupancy
  Li  Li1       1.0  0.0  0.0  0.0  1.0000
  La  La1       1.0  0.49999999999999994  0.49999999999999994  0.0  1.0000
  La  La2       1.0  0.0  0.49999999999999994  0.49999999999999994  1.0000
  La  La3       1.0  0.49999999999999994  0.0  0.49999999999999994  1.0000
