data_image0
_chemical_formula_structural       Li7ZrO6
_chemical_formula_sum              "Li7 Zr1 O6"
_cell_length_a       6.038881792432377
_cell_length_b       6.038881790253477
_cell_length_c       6.038882049355221
_cell_angle_alpha    56.00219133099826
_cell_angle_beta     56.00219139481233
_cell_angle_gamma    56.002192824013115

_space_group_name_H-M_alt    "P 1"
_space_group_IT_number       1

loop_
  _space_group_symop_operation_xyz
  'x, y, z'

loop_
  _atom_site_type_symbol
  _atom_site_label
  _atom_site_symmetry_multiplicity
  _atom_site_fract_x
  _atom_site_fract_y
  _atom_site_fract_z
  _atom_site_occupancy
  Li  Li1       1.0  0.07201574019618305  0.7701753804626965  0.5086857295005829  1.0000
  Li  Li2       1.0  0.5051323604892292  0.8750658796729102  0.27064937010529055  1.0000
  Li  Li3       1.0  0.2706493706652429  0.5051323596405438  0.8750658791820889  1.0000
  Li  Li4       1.0  0.34671388961555105  0.34671388961555105  0.34671389061931435  1.0000
  Li  Li5       1.0  0.7701753807464391  0.5086857293592807  0.0720157391932218  1.0000
  Li  Li6       1.0  0.5086857291910474  0.07201574031169239  0.7701753811720256  1.0000
  Li  Li7       1.0  0.8750658808569897  0.2706493691709016  0.5051323607016209  1.0000
  Zr  Zr1       1.0  0.9998046402364968  0.9998046402364965  0.9998046402961706  1.0000
  O   O1        1.0  0.20317581998444825  0.9298529608941035  0.6127299989225019  1.0000
  O   O2        1.0  0.3699696294192955  0.7619091702431543  0.11901443070321244  1.0000
  O   O3        1.0  0.11901442946868787  0.36996962956362994  0.7619091706296174  1.0000
  O   O4        1.0  0.9298529608423711  0.6127300004990544  0.20317581962318676  1.0000
  O   O5        1.0  0.6127300001567512  0.20317581959041306  0.929852960678826  1.0000
  O   O6        1.0  0.7619091704807104  0.11901442956191012  0.369969630817585  1.0000
