# generated using pymatgen
data_Li7La3Zr2O12
_symmetry_space_group_name_H-M   'P 1'
_cell_length_a   13.13379791
_cell_length_b   13.13381525
_cell_length_c   12.59696745
_cell_angle_alpha   90.00006962
_cell_angle_beta   90.00000529
_cell_angle_gamma   90.00000465
_symmetry_Int_Tables_number   1
_chemical_formula_structural   Li7La3Zr2O12
_chemical_formula_sum   'Li56 La24 Zr16 O96'
_cell_volume   2172.93752307
_cell_formula_units_Z   8
loop_
 _symmetry_equiv_pos_site_id
 _symmetry_equiv_pos_as_xyz
  1  'x, y, z'
loop_
 _atom_site_type_symbol
 _atom_site_label
 _atom_site_symmetry_multiplicity
 _atom_site_fract_x
 _atom_site_fract_y
 _atom_site_fract_z
 _atom_site_occupancy
  La  La0  1  0.50000110  0.75000030  0.62500148  1
  La  La1  1  0.49999965  0.75000003  0.12499858  1
  La  La2  1  0.00000033  0.75000014  0.87500245  1
  La  La3  1  0.99999886  0.75000006  0.37499847  1
  La  La4  1  0.50000109  0.24999973  0.37500058  1
  La  La5  1  0.49999972  0.24999946  0.87499855  1
  La  La6  1  0.00000024  0.24999970  0.12500150  1
  La  La7  1  0.99999889  0.24999962  0.62499841  1
  La  La8  1  0.25000015  0.87781692  0.49999982  1
  La  La9  1  0.74999995  0.87781443  0.00000024  1
  La  La10  1  0.12781641  0.50000123  0.75000133  1
  La  La11  1  0.87218377  0.50000120  0.25000083  1
  La  La12  1  0.74999881  0.12218450  0.49999956  1
  La  La13  1  0.25000122  0.12218256  0.99999993  1
  La  La14  1  0.25000004  0.62218642  0.00000040  1
  La  La15  1  0.74999992  0.62218348  0.49999954  1
  La  La16  1  0.12781548  0.99999903  0.24999909  1
  La  La17  1  0.87218266  0.99999905  0.74999954  1
  La  La18  1  0.74999885  0.37781735  0.00000021  1
  La  La19  1  0.25000118  0.37781476  0.49999940  1
  La  La20  1  0.62781613  0.00000018  0.25000066  1
  La  La21  1  0.37218523  0.00000011  0.75000116  1
  La  La22  1  0.62781538  0.50000012  0.74999942  1
  La  La23  1  0.37218499  0.50000010  0.24999887  1
  Zr  Zr24  1  0.25000081  0.75000097  0.75000517  1
  Zr  Zr25  1  0.75000077  0.74999979  0.24999873  1
  Zr  Zr26  1  0.00000109  0.50000511  0.00000109  1
  Zr  Zr27  1  0.99999689  0.50000096  0.49999760  1
  Zr  Zr28  1  0.74999742  0.24999914  0.25000392  1
  Zr  Zr29  1  0.25000408  0.24999803  0.75000011  1
  Zr  Zr30  1  0.24999990  0.75000069  0.24999487  1
  Zr  Zr31  1  0.74999869  0.75000033  0.75000146  1
  Zr  Zr32  1  0.99999761  0.99999998  0.49999817  1
  Zr  Zr33  1  0.99999996  0.99999536  0.00000171  1
  Zr  Zr34  1  0.74999680  0.24999976  0.74999679  1
  Zr  Zr35  1  0.25000188  0.24999946  0.25000075  1
  Zr  Zr36  1  0.50000287  0.00000245  0.50000023  1
  Zr  Zr37  1  0.49999936  0.99999814  0.99999900  1
  Zr  Zr38  1  0.49999947  0.50000251  0.00000050  1
  Zr  Zr39  1  0.50000251  0.49999833  0.49999991  1
  Li  Li40  1  0.50000021  0.74999990  0.37499976  1
  Li  Li41  1  0.50000006  0.75000002  0.87500021  1
  Li  Li42  1  0.99999972  0.75000002  0.62500005  1
  Li  Li43  1  0.99999999  0.75000009  0.12499979  1
  Li  Li44  1  0.50000019  0.24999989  0.62499994  1
  Li  Li45  1  0.49999998  0.24999992  0.12500023  1
  Li  Li46  1  0.99999985  0.24999982  0.37500004  1
  Li  Li47  1  0.99999994  0.24999981  0.87499997  1
  Li  Li48  1  0.67884258  0.92884296  0.62500020  1
  Li  Li49  1  0.32115713  0.92884245  0.12499966  1
  Li  Li50  1  0.17884297  0.92884204  0.87500071  1
  Li  Li51  1  0.82115739  0.92884261  0.37500006  1
  Li  Li52  1  0.32115762  0.07115740  0.37499964  1
  Li  Li53  1  0.67884249  0.07115686  0.87499969  1
  Li  Li54  1  0.82115725  0.07115698  0.12500005  1
  Li  Li55  1  0.17884279  0.07115751  0.62500000  1
  Li  Li56  1  0.67884250  0.57115779  0.12499986  1
  Li  Li57  1  0.32115764  0.57115734  0.62500006  1
  Li  Li58  1  0.17884253  0.57115708  0.37499948  1
  Li  Li59  1  0.82115723  0.57115768  0.87499998  1
  Li  Li60  1  0.32115767  0.42884261  0.87500020  1
  Li  Li61  1  0.67884269  0.42884232  0.37500063  1
  Li  Li62  1  0.82115674  0.42884273  0.62499952  1
  Li  Li63  1  0.17884273  0.42884310  0.12500026  1
  Li  Li64  1  0.33631991  0.83129140  0.94388399  1
  Li  Li65  1  0.66368012  0.83129217  0.44388389  1
  Li  Li66  1  0.08129163  0.58632041  0.19388364  1
  Li  Li67  1  0.91870788  0.58632019  0.69388397  1
  Li  Li68  1  0.66367963  0.16870787  0.05611619  1
  Li  Li69  1  0.33632042  0.16870831  0.55611623  1
  Li  Li70  1  0.91870790  0.41368041  0.80611576  1
  Li  Li71  1  0.08129173  0.41368022  0.30611600  1
  Li  Li72  1  0.33632028  0.66870800  0.44388380  1
  Li  Li73  1  0.66367993  0.66870858  0.94388396  1
  Li  Li74  1  0.08129201  0.91367994  0.69388418  1
  Li  Li75  1  0.91870826  0.91367977  0.19388372  1
  Li  Li76  1  0.66367982  0.33129158  0.55611604  1
  Li  Li77  1  0.33632018  0.33129206  0.05611615  1
  Li  Li78  1  0.91870789  0.08631967  0.30611630  1
  Li  Li79  1  0.08129223  0.08631950  0.80611598  1
  Li  Li80  1  0.83631955  0.33129171  0.44388398  1
  Li  Li81  1  0.16368048  0.33129229  0.94388408  1
  Li  Li82  1  0.58129155  0.08632015  0.69388381  1
  Li  Li83  1  0.41870833  0.08631995  0.19388402  1
  Li  Li84  1  0.16367977  0.66870818  0.55611597  1
  Li  Li85  1  0.83632009  0.66870863  0.05611619  1
  Li  Li86  1  0.41870837  0.91368014  0.30611564  1
  Li  Li87  1  0.58129159  0.91367989  0.80611618  1
  Li  Li88  1  0.83631974  0.16870763  0.94388399  1
  Li  Li89  1  0.16368020  0.16870823  0.44388384  1
  Li  Li90  1  0.58129174  0.41368019  0.19388412  1
  Li  Li91  1  0.41870864  0.41367984  0.69388393  1
  Li  Li92  1  0.16368007  0.83129130  0.05611611  1
  Li  Li93  1  0.83631985  0.83129201  0.55611593  1
  Li  Li94  1  0.41870833  0.58632018  0.80611643  1
  Li  Li95  1  0.58129193  0.58631977  0.30611597  1
  O  O96  1  0.30519041  0.71503688  0.59663366  1
  O  O97  1  0.69480942  0.71503736  0.09663568  1
  O  O98  1  0.96503753  0.55518956  0.84663489  1
  O  O99  1  0.03496312  0.55519016  0.34663633  1
  O  O100  1  0.69480995  0.28496246  0.40336335  1
  O  O101  1  0.30518993  0.28496280  0.90336443  1
  O  O102  1  0.03496264  0.44480853  0.15336445  1
  O  O103  1  0.96503784  0.44480913  0.65336530  1
  O  O104  1  0.30519044  0.78496229  0.09663713  1
  O  O105  1  0.69480935  0.78496254  0.59663515  1
  O  O106  1  0.96503796  0.94480964  0.34663622  1
  O  O107  1  0.03496255  0.94481019  0.84663476  1
  O  O108  1  0.69481006  0.21503744  0.90336546  1
  O  O109  1  0.30518983  0.21503759  0.40336447  1
  O  O110  1  0.03496311  0.05519107  0.65336536  1
  O  O111  1  0.96503740  0.05519162  0.15336436  1
  O  O112  1  0.80519136  0.21503737  0.09663369  1
  O  O113  1  0.19480874  0.21503754  0.59663531  1
  O  O114  1  0.46503688  0.05519016  0.34663541  1
  O  O115  1  0.53496278  0.05519080  0.84663567  1
  O  O116  1  0.19480949  0.78496229  0.90336266  1
  O  O117  1  0.80519076  0.78496262  0.40336517  1
  O  O118  1  0.53496221  0.94480916  0.65336427  1
  O  O119  1  0.46503740  0.94480976  0.15336490  1
  O  O120  1  0.80519142  0.28496270  0.59663661  1
  O  O121  1  0.19480868  0.28496283  0.09663487  1
  O  O122  1  0.46503713  0.44480916  0.84663510  1
  O  O123  1  0.53496214  0.44480981  0.34663563  1
  O  O124  1  0.19480950  0.71503685  0.40336652  1
  O  O125  1  0.80519061  0.71503715  0.90336393  1
  O  O126  1  0.53496249  0.55519023  0.15336461  1
  O  O127  1  0.46503667  0.55519084  0.65336464  1
  O  O128  1  0.10328004  0.80445415  0.21495002  1
  O  O129  1  0.89672125  0.80445421  0.71494840  1
  O  O130  1  0.05445452  0.35327921  0.46494922  1
  O  O131  1  0.94554571  0.35327758  0.96494824  1
  O  O132  1  0.89672224  0.19554596  0.78505193  1
  O  O133  1  0.10327891  0.19554624  0.28505093  1
  O  O134  1  0.94554641  0.64672019  0.53505136  1
  O  O135  1  0.05445360  0.64671858  0.03505037  1
  O  O136  1  0.10327906  0.69554547  0.71494782  1
  O  O137  1  0.89672050  0.69554576  0.21494945  1
  O  O138  1  0.05445387  0.14672250  0.96494821  1
  O  O139  1  0.94554679  0.14672069  0.46494930  1
  O  O140  1  0.89672170  0.30445401  0.28505059  1
  O  O141  1  0.10327802  0.30445430  0.78505172  1
  O  O142  1  0.94554619  0.85328107  0.03505035  1
  O  O143  1  0.05445460  0.85327915  0.53505154  1
  O  O144  1  0.60328045  0.30445416  0.71494984  1
  O  O145  1  0.39671970  0.30445402  0.21494876  1
  O  O146  1  0.55445424  0.85328009  0.96494926  1
  O  O147  1  0.44554516  0.85327835  0.46494869  1
  O  O148  1  0.39672061  0.69554570  0.28505206  1
  O  O149  1  0.60327968  0.69554587  0.78505045  1
  O  O150  1  0.44554566  0.14672132  0.03505124  1
  O  O151  1  0.55445362  0.14671973  0.53505070  1
  O  O152  1  0.60327983  0.19554611  0.21494839  1
  O  O153  1  0.39671903  0.19554635  0.71494937  1
  O  O154  1  0.55445355  0.64672092  0.46494888  1
  O  O155  1  0.44554626  0.64671947  0.96494904  1
  O  O156  1  0.39671987  0.80445380  0.78505000  1
  O  O157  1  0.60327887  0.80445411  0.28505164  1
  O  O158  1  0.44554538  0.35328027  0.53505098  1
  O  O159  1  0.55445447  0.35327882  0.03505120  1
  O  O160  1  0.27774078  0.89990852  0.30288031  1
  O  O161  1  0.72225995  0.89990847  0.80287892  1
  O  O162  1  0.14990914  0.52774123  0.55287962  1
  O  O163  1  0.85009180  0.52773951  0.05287878  1
  O  O164  1  0.72226017  0.10009223  0.69712151  1
  O  O165  1  0.27774039  0.10009224  0.19712085  1
  O  O166  1  0.85009293  0.47225943  0.44712102  1
  O  O167  1  0.14990786  0.47225786  0.94712019  1
  O  O168  1  0.27774011  0.60009129  0.80287799  1
  O  O169  1  0.72225931  0.60009160  0.30287913  1
  O  O170  1  0.14990781  0.97226055  0.05287894  1
  O  O171  1  0.85009282  0.97225908  0.55287939  1
  O  O172  1  0.72225962  0.39990812  0.19712015  1
  O  O173  1  0.27773999  0.39990849  0.69712084  1
  O  O174  1  0.85009173  0.02774215  0.94712057  1
  O  O175  1  0.14990885  0.02774077  0.44712132  1
  O  O176  1  0.77774176  0.39990834  0.80287997  1
  O  O177  1  0.22225880  0.39990836  0.30287953  1
  O  O178  1  0.64990886  0.02774159  0.05287932  1
  O  O179  1  0.35009047  0.02774027  0.55287895  1
  O  O180  1  0.22225938  0.60009142  0.19712155  1
  O  O181  1  0.77774123  0.60009131  0.69712077  1
  O  O182  1  0.35009159  0.97226021  0.94712076  1
  O  O183  1  0.64990777  0.97225894  0.44712081  1
  O  O184  1  0.77774100  0.10009235  0.30287844  1
  O  O185  1  0.22225833  0.10009258  0.80287892  1
  O  O186  1  0.64990778  0.47225994  0.55287918  1
  O  O187  1  0.35009164  0.47225844  0.05287921  1
  O  O188  1  0.22225879  0.89990826  0.69711994  1
  O  O189  1  0.77774052  0.89990836  0.19712104  1
  O  O190  1  0.35009037  0.52774134  0.44712109  1
  O  O191  1  0.64990884  0.52773985  0.94712099  1
