data_generated
_cell_length_a    26.458861
_cell_length_b    26.458861
_cell_length_c    26.458861
_cell_angle_alpha 90.000000
_cell_angle_beta  90.000000
_cell_angle_gamma 90.000000

loop_
  _atom_site_label
  _atom_site_type_symbol
  _atom_site_fract_x
  _atom_site_fract_y
  _atom_site_fract_z
  O1 O 0.95687904 0.00000000 0.00000000
  O2 O 0.04312096 0.00000000 0.00000000
