# generated using pymatgen
data_Zr
_symmetry_space_group_name_H-M   'P 1'
_cell_length_a   6.49470403
_cell_length_b   6.49573622
_cell_length_c   10.30502885
_cell_angle_alpha   90.00000000
_cell_angle_beta   90.00000000
_cell_angle_gamma   119.99474369
_symmetry_Int_Tables_number   1
_chemical_formula_structural   Zr
_chemical_formula_sum   Zr16
_cell_volume   376.52220186
_cell_formula_units_Z   16
loop_
 _symmetry_equiv_pos_site_id
 _symmetry_equiv_pos_as_xyz
  1  'x, y, z'
loop_
 _atom_site_type_symbol
 _atom_site_label
 _atom_site_symmetry_multiplicity
 _atom_site_fract_x
 _atom_site_fract_y
 _atom_site_fract_z
 _atom_site_occupancy
  Zr  Zr0  1  0.16665000  0.33329999  0.12500000  1
  Zr  Zr1  1  0.16665000  0.33329999  0.62500000  1
  Zr  Zr2  1  0.16665000  0.83329999  0.12500000  1
  Zr  Zr3  1  0.16665000  0.83329999  0.62500000  1
  Zr  Zr4  1  0.66665000  0.33329999  0.12500000  1
  Zr  Zr5  1  0.66665000  0.33329999  0.62500000  1
  Zr  Zr6  1  0.66665000  0.83329999  0.12500000  1
  Zr  Zr7  1  0.66665000  0.83329999  0.62500000  1
  Zr  Zr8  1  0.33335000  0.16670001  0.37500000  1
  Zr  Zr9  1  0.33335000  0.16670001  0.87500000  1
  Zr  Zr10  1  0.33335000  0.66670001  0.37500000  1
  Zr  Zr11  1  0.33335000  0.66670001  0.87500000  1
  Zr  Zr12  1  0.83335000  0.16670001  0.37500000  1
  Zr  Zr13  1  0.83335000  0.16670001  0.87500000  1
  Zr  Zr14  1  0.83335000  0.66670001  0.37500000  1
  Zr  Zr15  1  0.83335000  0.66670001  0.87500000  1
